File C:\Users\Francesco\Desktop\Castelletto metallico\Castelletto c. q. + controventi.$2k was saved on 3/23/15 at 19:11:14
 
TABLE:  "ACTIVE DEGREES OF FREEDOM"
   UX=Yes   UY=Yes   UZ=Yes   RX=Yes   RY=Yes   RZ=Yes
 
TABLE:  "ANALYSIS OPTIONS"
   Solver=Advanced   SolverProc=Auto   Force32Bit=No   StiffCase="Buckling total"   GeomMod=No
 
TABLE:  "AUTO WAVE 3 - WAVE CHARACTERISTICS - GENERAL"
   WaveChar=Default   WaveType="From Theory"   KinFactor=1   SWaterDepth=45   WaveHeight=18   WavePeriod=12   WaveTheory=Linear
 
TABLE:  "BRIDGE DESIGN PREFERENCES - AASHTOLRFD07"
   HingeOpt="Auto: AASHTO/Caltrans Hinge"
 
TABLE:  "BRIDGE PREFERENCES"
   NorthAngle=90   MaxDiscCurv=1
 
TABLE:  "CASE - BUCKLING 1 - GENERAL"
   Case="Buckling total"   NumBuckMode=6   EigenTol=0.000000001
 
TABLE:  "CASE - BUCKLING 2 - LOAD ASSIGNMENTS"
   Case="Buckling total"   LoadType="Load pattern"   LoadName=DEAD   LoadSF=1
   Case="Buckling total"   LoadType="Load pattern"   LoadName=F-vento   LoadSF=1
   Case="Buckling total"   LoadType="Load pattern"   LoadName=Q-neve   LoadSF=1
   Case="Buckling total"   LoadType="Load pattern"   LoadName=Vetro   LoadSF=1
   Case="Buckling total"   LoadType="Load pattern"   LoadName=S-puntone   LoadSF=1
 
TABLE:  "CASE - STATIC 1 - LOAD ASSIGNMENTS"
   Case=DEAD   LoadType="Load pattern"   LoadName=DEAD   LoadSF=1
   Case=Vetro   LoadType="Load pattern"   LoadName=Vetro   LoadSF=1
   Case=S-puntone   LoadType="Load pattern"   LoadName=S-puntone   LoadSF=1
   Case=F-vento   LoadType="Load pattern"   LoadName=F-vento   LoadSF=1
   Case=Q-neve   LoadType="Load pattern"   LoadName=Q-neve   LoadSF=1
   Case=P_delta   LoadType="Load pattern"   LoadName=DEAD   LoadSF=1
   Case=P_delta   LoadType="Load pattern"   LoadName=Vetro   LoadSF=1
   Case=P_delta   LoadType="Load pattern"   LoadName=F-vento   LoadSF=1
   Case=P_delta   LoadType="Load pattern"   LoadName=Q-neve   LoadSF=1
   Case=P_delta   LoadType="Load pattern"   LoadName=S-puntone   LoadSF=1
   Case="vetro 2"   LoadType="Load pattern"   LoadName="vetro 2"   LoadSF=1
   Case=Porta   LoadType="Load pattern"   LoadName=Porta   LoadSF=1
 
TABLE:  "CASE - STATIC 2 - NONLINEAR LOAD APPLICATION"
   Case=P_delta   LoadApp="Full Load"   MonitorDOF=U1   MonitorJt=70
 
TABLE:  "CASE - STATIC 4 - NONLINEAR PARAMETERS"
   Case=P_delta   Unloading="Unload Entire"   GeoNonLin="Large Displ"   ResultsSave="Final State"   MaxTotal=200   MaxNull=50   MaxIterCS=10   MaxIterNR=40   ItConvTol=0.0001   UseEvStep=Yes   EvLumpTol=0.01   LSPerIter=20   LSTol=0.1 _
        LSStepFact=1.618   FrameTC=Yes   FrameHinge=Yes   CableTC=Yes   LinkTC=Yes   LinkOther=Yes   TFMaxIter=10   TFTol=0.01   TFAccelFact=1   TFNoStop=No
 
TABLE:  "COMBINATION DEFINITIONS"
   ComboName="COMB1_ SLU_Vento"   ComboType="Linear Add"   AutoDesign=No   CaseName=DEAD   ScaleFactor=1.3   SteelDesign=Yes   ConcDesign=No   AlumDesign=No   ColdDesign=No
   ComboName="COMB1_ SLU_Vento"   CaseName=F-vento   ScaleFactor=1.5
   ComboName="COMB1_ SLU_Vento"   CaseName=S-puntone   ScaleFactor=1
   ComboName="COMB1_ SLU_Vento"   CaseName=Vetro   ScaleFactor=1.3
   ComboName="COMB1_ SLU_Vento"   CaseName=Q-neve   ScaleFactor=1.05
   ComboName="COMB1_ SLU_Vento"   CaseName=Porta   ScaleFactor=1.3
   ComboName="COMB2_SLU_ Qneve"   ComboType="Linear Add"   AutoDesign=No   CaseName=DEAD   ScaleFactor=1.3   SteelDesign=No   ConcDesign=No   AlumDesign=No   ColdDesign=No
   ComboName="COMB2_SLU_ Qneve"   CaseName=F-vento   ScaleFactor=1.05
   ComboName="COMB2_SLU_ Qneve"   CaseName=S-puntone   ScaleFactor=1
   ComboName="COMB2_SLU_ Qneve"   CaseName=Vetro   ScaleFactor=1.3
   ComboName="COMB2_SLU_ Qneve"   CaseName=Q-neve   ScaleFactor=1.5
   ComboName="COMB2_SLU_ Qneve"   CaseName=Porta   ScaleFactor=1.3
 
TABLE:  "CONNECTIVITY - FRAME"
   Frame=1   JointI=87   JointJ=60   IsCurved=No
   Frame=2   JointI=60   JointJ=90   IsCurved=No
   Frame=3   JointI=90   JointJ=64   IsCurved=No
   Frame=4   JointI=64   JointJ=94   IsCurved=No
   Frame=5   JointI=94   JointJ=68   IsCurved=No
   Frame=6   JointI=68   JointJ=99   IsCurved=No
   Frame=7   JointI=71   JointJ=96   IsCurved=No
   Frame=8   JointI=96   JointJ=66   IsCurved=No
   Frame=9   JointI=66   JointJ=92   IsCurved=No
   Frame=10   JointI=92   JointJ=62   IsCurved=No
   Frame=11   JointI=62   JointJ=88   IsCurved=No
   Frame=12   JointI=88   JointJ=59   IsCurved=No
   Frame=13   JointI=87   JointJ=89   IsCurved=No
   Frame=14   JointI=89   JointJ=90   IsCurved=No
   Frame=15   JointI=90   JointJ=93   IsCurved=No
   Frame=16   JointI=93   JointJ=94   IsCurved=No
   Frame=17   JointI=94   JointJ=97   IsCurved=No
   Frame=18   JointI=97   JointJ=99   IsCurved=No
   Frame=19   JointI=98   JointJ=96   IsCurved=No
   Frame=20   JointI=96   JointJ=95   IsCurved=No
# ... 64 like lines cut
 
TABLE:  "COORDINATE SYSTEMS"
   Name=GLOBAL   Type=Cartesian   X=0   Y=0   Z=0   AboutZ=0   AboutY=0   AboutX=0
 
TABLE:  "DATABASE DOCUMENTATION"
 
TABLE:  "DATABASE FORMAT TYPES"
   UnitsCurr=Yes   OverrideE=No
 
TABLE:  "FRAME AUTO MESH ASSIGNMENTS"
   Frame=1   AutoMesh=Yes   AtJoints=Yes   AtFrames=No   NumSegments=0   MaxLength=0   MaxDegrees=0
   Frame=2   AutoMesh=Yes   AtJoints=Yes   AtFrames=No   NumSegments=0   MaxLength=0   MaxDegrees=0
   Frame=3   AutoMesh=Yes   AtJoints=Yes   AtFrames=No   NumSegments=0   MaxLength=0   MaxDegrees=0
   Frame=4   AutoMesh=Yes   AtJoints=Yes   AtFrames=No   NumSegments=0   MaxLength=0   MaxDegrees=0
   Frame=5   AutoMesh=Yes   AtJoints=Yes   AtFrames=No   NumSegments=0   MaxLength=0   MaxDegrees=0
   Frame=6   AutoMesh=Yes   AtJoints=Yes   AtFrames=No   NumSegments=0   MaxLength=0   MaxDegrees=0
   Frame=7   AutoMesh=Yes   AtJoints=Yes   AtFrames=No   NumSegments=0   MaxLength=0   MaxDegrees=0
   Frame=8   AutoMesh=Yes   AtJoints=Yes   AtFrames=No   NumSegments=0   MaxLength=0   MaxDegrees=0
   Frame=9   AutoMesh=Yes   AtJoints=Yes   AtFrames=No   NumSegments=0   MaxLength=0   MaxDegrees=0
   Frame=10   AutoMesh=Yes   AtJoints=Yes   AtFrames=No   NumSegments=0   MaxLength=0   MaxDegrees=0
   Frame=11   AutoMesh=Yes   AtJoints=Yes   AtFrames=No   NumSegments=0   MaxLength=0   MaxDegrees=0
   Frame=12   AutoMesh=Yes   AtJoints=Yes   AtFrames=No   NumSegments=0   MaxLength=0   MaxDegrees=0
   Frame=13   AutoMesh=Yes   AtJoints=Yes   AtFrames=No   NumSegments=0   MaxLength=0   MaxDegrees=0
   Frame=14   AutoMesh=Yes   AtJoints=Yes   AtFrames=No   NumSegments=0   MaxLength=0   MaxDegrees=0
   Frame=15   AutoMesh=Yes   AtJoints=Yes   AtFrames=No   NumSegments=0   MaxLength=0   MaxDegrees=0
   Frame=16   AutoMesh=Yes   AtJoints=Yes   AtFrames=No   NumSegments=0   MaxLength=0   MaxDegrees=0
   Frame=17   AutoMesh=Yes   AtJoints=Yes   AtFrames=No   NumSegments=0   MaxLength=0   MaxDegrees=0
   Frame=18   AutoMesh=Yes   AtJoints=Yes   AtFrames=No   NumSegments=0   MaxLength=0   MaxDegrees=0
   Frame=19   AutoMesh=Yes   AtJoints=Yes   AtFrames=No   NumSegments=0   MaxLength=0   MaxDegrees=0
   Frame=20   AutoMesh=Yes   AtJoints=Yes   AtFrames=No   NumSegments=0   MaxLength=0   MaxDegrees=0
# ... 64 like lines cut
 
TABLE:  "FRAME DESIGN PROCEDURES"
   Frame=1   DesignProc="From Material"
   Frame=2   DesignProc="From Material"
   Frame=3   DesignProc="From Material"
   Frame=4   DesignProc="From Material"
   Frame=5   DesignProc="From Material"
   Frame=6   DesignProc="From Material"
   Frame=7   DesignProc="From Material"
   Frame=8   DesignProc="From Material"
   Frame=9   DesignProc="From Material"
   Frame=10   DesignProc="From Material"
   Frame=11   DesignProc="From Material"
   Frame=12   DesignProc="From Material"
   Frame=13   DesignProc="From Material"
   Frame=14   DesignProc="From Material"
   Frame=15   DesignProc="From Material"
   Frame=16   DesignProc="From Material"
   Frame=17   DesignProc="From Material"
   Frame=18   DesignProc="From Material"
   Frame=19   DesignProc="From Material"
   Frame=20   DesignProc="From Material"
# ... 64 like lines cut
 
TABLE:  "FRAME LOADS - DISTRIBUTED"
   Frame=95   LoadPat=Vetro   CoordSys=GLOBAL   Type=Force   Dir=Gravity   DistType=RelDist   RelDistA=0   RelDistB=1   AbsDistA=0   AbsDistB=1.75   FOverLA=0.86   FOverLB=0.86
   Frame=99   LoadPat=Vetro   CoordSys=GLOBAL   Type=Force   Dir=Gravity   DistType=RelDist   RelDistA=0   RelDistB=1   AbsDistA=0   AbsDistB=1.75   FOverLA=0.86   FOverLB=0.86
   Frame=103   LoadPat=Vetro   CoordSys=GLOBAL   Type=Force   Dir=Gravity   DistType=RelDist   RelDistA=0   RelDistB=1   AbsDistA=0   AbsDistB=1.75   FOverLA=0.86   FOverLB=0.86
   Frame=107   LoadPat=Vetro   CoordSys=GLOBAL   Type=Force   Dir=Gravity   DistType=RelDist   RelDistA=0   RelDistB=1   AbsDistA=0   AbsDistB=1.75   FOverLA=0.86   FOverLB=0.86
   Frame=111   LoadPat="vetro 2"   CoordSys=GLOBAL   Type=Force   Dir=Gravity   DistType=RelDist   RelDistA=0   RelDistB=1   AbsDistA=0   AbsDistB=1.75   FOverLA=0.98   FOverLB=0.98
   Frame=114   LoadPat=Q-neve   CoordSys=GLOBAL   Type=Force   Dir=Gravity   DistType=RelDist   RelDistA=0   RelDistB=1   AbsDistA=0   AbsDistB=1.75   FOverLA=0.48   FOverLB=0.48
   Frame=137   LoadPat=Vetro   CoordSys=GLOBAL   Type=Force   Dir=Gravity   DistType=RelDist   RelDistA=0   RelDistB=1   AbsDistA=0   AbsDistB=1.75   FOverLA=0.86   FOverLB=0.86
   Frame=140   LoadPat=Vetro   CoordSys=GLOBAL   Type=Force   Dir=Gravity   DistType=RelDist   RelDistA=0   RelDistB=1   AbsDistA=0   AbsDistB=1.75   FOverLA=0.86   FOverLB=0.86
   Frame=143   LoadPat=Vetro   CoordSys=GLOBAL   Type=Force   Dir=Gravity   DistType=RelDist   RelDistA=0   RelDistB=1   AbsDistA=0   AbsDistB=1.75   FOverLA=0.86   FOverLB=0.86
   Frame=146   LoadPat=Vetro   CoordSys=GLOBAL   Type=Force   Dir=Gravity   DistType=RelDist   RelDistA=0   RelDistB=1   AbsDistA=0   AbsDistB=1.75   FOverLA=0.86   FOverLB=0.86
   Frame=149   LoadPat=Vetro   CoordSys=GLOBAL   Type=Force   Dir=Gravity   DistType=RelDist   RelDistA=0   RelDistB=1   AbsDistA=0   AbsDistB=1.75   FOverLA=1.64   FOverLB=1.64
   Frame=149   LoadPat="vetro 2"   CoordSys=GLOBAL   Type=Force   Dir=Gravity   DistType=RelDist   RelDistA=0   RelDistB=1   AbsDistA=0   AbsDistB=1.75   FOverLA=0.98   FOverLB=0.98
   Frame=152   LoadPat=Q-neve   CoordSys=GLOBAL   Type=Force   Dir=Gravity   DistType=RelDist   RelDistA=0   RelDistB=1   AbsDistA=0   AbsDistB=1.75   FOverLA=0.48   FOverLB=0.48
   Frame=155   LoadPat=Porta   CoordSys=GLOBAL   Type=Force   Dir=Gravity   DistType=RelDist   RelDistA=0   RelDistB=1   AbsDistA=0   AbsDistB=1.95   FOverLA=0.8   FOverLB=0.8
   Frame=156   LoadPat=Porta   CoordSys=GLOBAL   Type=Force   Dir=Gravity   DistType=RelDist   RelDistA=0   RelDistB=1   AbsDistA=0   AbsDistB=1.95   FOverLA=0.8   FOverLB=0.8
   Frame=157   LoadPat=Porta   CoordSys=GLOBAL   Type=Force   Dir=Gravity   DistType=RelDist   RelDistA=0   RelDistB=1   AbsDistA=0   AbsDistB=1.95   FOverLA=0.8   FOverLB=0.8
   Frame=158   LoadPat=Porta   CoordSys=GLOBAL   Type=Force   Dir=Gravity   DistType=RelDist   RelDistA=0   RelDistB=1   AbsDistA=0   AbsDistB=1.95   FOverLA=0.8   FOverLB=0.8
   Frame=159   LoadPat=Porta   CoordSys=GLOBAL   Type=Force   Dir=Gravity   DistType=RelDist   RelDistA=0   RelDistB=1   AbsDistA=0   AbsDistB=1.95   FOverLA=0.8   FOverLB=0.8
   Frame=162   LoadPat=Vetro   CoordSys=GLOBAL   Type=Force   Dir=Gravity   DistType=RelDist   RelDistA=0   RelDistB=1   AbsDistA=0   AbsDistB=1.95   FOverLA=0.86   FOverLB=0.86
   Frame=163   LoadPat=Vetro   CoordSys=GLOBAL   Type=Force   Dir=Gravity   DistType=RelDist   RelDistA=0   RelDistB=1   AbsDistA=0   AbsDistB=1.95   FOverLA=0.86   FOverLB=0.86
   Frame=164   LoadPat=Vetro   CoordSys=GLOBAL   Type=Force   Dir=Gravity   DistType=RelDist   RelDistA=0   RelDistB=1   AbsDistA=0   AbsDistB=1.95   FOverLA=0.86   FOverLB=0.86
   Frame=165   LoadPat=Vetro   CoordSys=GLOBAL   Type=Force   Dir=Gravity   DistType=RelDist   RelDistA=0   RelDistB=1   AbsDistA=0   AbsDistB=1.95   FOverLA=0.86   FOverLB=0.86
   Frame=166   LoadPat="vetro 2"   CoordSys=GLOBAL   Type=Force   Dir=Gravity   DistType=RelDist   RelDistA=0   RelDistB=1   AbsDistA=0   AbsDistB=1.95   FOverLA=0.98   FOverLB=0.98
 
TABLE:  "FRAME OUTPUT STATION ASSIGNMENTS"
   Frame=1   StationType=MinNumSta   MinNumSta=3   AddAtElmInt=Yes   AddAtPtLoad=Yes
   Frame=2   StationType=MinNumSta   MinNumSta=3   AddAtElmInt=Yes   AddAtPtLoad=Yes
   Frame=3   StationType=MinNumSta   MinNumSta=3   AddAtElmInt=Yes   AddAtPtLoad=Yes
   Frame=4   StationType=MinNumSta   MinNumSta=3   AddAtElmInt=Yes   AddAtPtLoad=Yes
   Frame=5   StationType=MinNumSta   MinNumSta=3   AddAtElmInt=Yes   AddAtPtLoad=Yes
   Frame=6   StationType=MinNumSta   MinNumSta=3   AddAtElmInt=Yes   AddAtPtLoad=Yes
   Frame=7   StationType=MinNumSta   MinNumSta=3   AddAtElmInt=Yes   AddAtPtLoad=Yes
   Frame=8   StationType=MinNumSta   MinNumSta=3   AddAtElmInt=Yes   AddAtPtLoad=Yes
   Frame=9   StationType=MinNumSta   MinNumSta=3   AddAtElmInt=Yes   AddAtPtLoad=Yes
   Frame=10   StationType=MinNumSta   MinNumSta=3   AddAtElmInt=Yes   AddAtPtLoad=Yes
   Frame=11   StationType=MinNumSta   MinNumSta=3   AddAtElmInt=Yes   AddAtPtLoad=Yes
   Frame=12   StationType=MinNumSta   MinNumSta=3   AddAtElmInt=Yes   AddAtPtLoad=Yes
   Frame=13   StationType=MinNumSta   MinNumSta=3   AddAtElmInt=Yes   AddAtPtLoad=Yes
   Frame=14   StationType=MinNumSta   MinNumSta=3   AddAtElmInt=Yes   AddAtPtLoad=Yes
   Frame=15   StationType=MinNumSta   MinNumSta=3   AddAtElmInt=Yes   AddAtPtLoad=Yes
   Frame=16   StationType=MinNumSta   MinNumSta=3   AddAtElmInt=Yes   AddAtPtLoad=Yes
   Frame=17   StationType=MinNumSta   MinNumSta=3   AddAtElmInt=Yes   AddAtPtLoad=Yes
   Frame=18   StationType=MinNumSta   MinNumSta=3   AddAtElmInt=Yes   AddAtPtLoad=Yes
   Frame=19   StationType=MinNumSta   MinNumSta=3   AddAtElmInt=Yes   AddAtPtLoad=Yes
   Frame=20   StationType=MinNumSta   MinNumSta=3   AddAtElmInt=Yes   AddAtPtLoad=Yes
# ... 17 like lines cut
   Frame=95   StationType=MaxStaSpcg   MaxStaSpcg=0.5   AddAtElmInt=Yes   AddAtPtLoad=Yes
   Frame=96   StationType=MinNumSta   MinNumSta=3   AddAtElmInt=Yes   AddAtPtLoad=Yes
   Frame=98   StationType=MinNumSta   MinNumSta=3   AddAtElmInt=Yes   AddAtPtLoad=Yes
   Frame=99   StationType=MaxStaSpcg   MaxStaSpcg=0.5   AddAtElmInt=Yes   AddAtPtLoad=Yes
   Frame=100   StationType=MinNumSta   MinNumSta=3   AddAtElmInt=Yes   AddAtPtLoad=Yes
   Frame=102   StationType=MinNumSta   MinNumSta=3   AddAtElmInt=Yes   AddAtPtLoad=Yes
   Frame=103   StationType=MaxStaSpcg   MaxStaSpcg=0.5   AddAtElmInt=Yes   AddAtPtLoad=Yes
   Frame=104   StationType=MinNumSta   MinNumSta=3   AddAtElmInt=Yes   AddAtPtLoad=Yes
   Frame=106   StationType=MinNumSta   MinNumSta=3   AddAtElmInt=Yes   AddAtPtLoad=Yes
   Frame=107   StationType=MaxStaSpcg   MaxStaSpcg=0.5   AddAtElmInt=Yes   AddAtPtLoad=Yes
   Frame=108   StationType=MinNumSta   MinNumSta=3   AddAtElmInt=Yes   AddAtPtLoad=Yes
   Frame=110   StationType=MinNumSta   MinNumSta=3   AddAtElmInt=Yes   AddAtPtLoad=Yes
   Frame=111   StationType=MaxStaSpcg   MaxStaSpcg=0.5   AddAtElmInt=Yes   AddAtPtLoad=Yes
   Frame=112   StationType=MinNumSta   MinNumSta=3   AddAtElmInt=Yes   AddAtPtLoad=Yes
   Frame=113   StationType=MinNumSta   MinNumSta=3   AddAtElmInt=Yes   AddAtPtLoad=Yes
   Frame=114   StationType=MaxStaSpcg   MaxStaSpcg=0.5   AddAtElmInt=Yes   AddAtPtLoad=Yes
   Frame=115   StationType=MinNumSta   MinNumSta=3   AddAtElmInt=Yes   AddAtPtLoad=Yes
   Frame=136   StationType=MinNumSta   MinNumSta=3   AddAtElmInt=Yes   AddAtPtLoad=Yes
   Frame=137   StationType=MaxStaSpcg   MaxStaSpcg=0.5   AddAtElmInt=Yes   AddAtPtLoad=Yes
   Frame=138   StationType=MinNumSta   MinNumSta=3   AddAtElmInt=Yes   AddAtPtLoad=Yes
   Frame=139   StationType=MinNumSta   MinNumSta=3   AddAtElmInt=Yes   AddAtPtLoad=Yes
   Frame=140   StationType=MaxStaSpcg   MaxStaSpcg=0.5   AddAtElmInt=Yes   AddAtPtLoad=Yes
   Frame=141   StationType=MinNumSta   MinNumSta=3   AddAtElmInt=Yes   AddAtPtLoad=Yes
   Frame=142   StationType=MinNumSta   MinNumSta=3   AddAtElmInt=Yes   AddAtPtLoad=Yes
   Frame=143   StationType=MaxStaSpcg   MaxStaSpcg=0.5   AddAtElmInt=Yes   AddAtPtLoad=Yes
   Frame=144   StationType=MinNumSta   MinNumSta=3   AddAtElmInt=Yes   AddAtPtLoad=Yes
   Frame=145   StationType=MinNumSta   MinNumSta=3   AddAtElmInt=Yes   AddAtPtLoad=Yes
   Frame=146   StationType=MaxStaSpcg   MaxStaSpcg=0.5   AddAtElmInt=Yes   AddAtPtLoad=Yes
   Frame=147   StationType=MinNumSta   MinNumSta=3   AddAtElmInt=Yes   AddAtPtLoad=Yes
   Frame=148   StationType=MinNumSta   MinNumSta=3   AddAtElmInt=Yes   AddAtPtLoad=Yes
   Frame=149   StationType=MaxStaSpcg   MaxStaSpcg=0.5   AddAtElmInt=Yes   AddAtPtLoad=Yes
   Frame=150   StationType=MinNumSta   MinNumSta=3   AddAtElmInt=Yes   AddAtPtLoad=Yes
   Frame=151   StationType=MinNumSta   MinNumSta=3   AddAtElmInt=Yes   AddAtPtLoad=Yes
   Frame=152   StationType=MaxStaSpcg   MaxStaSpcg=0.5   AddAtElmInt=Yes   AddAtPtLoad=Yes
   Frame=153   StationType=MinNumSta   MinNumSta=3   AddAtElmInt=Yes   AddAtPtLoad=Yes
   Frame=154   StationType=MaxStaSpcg   MaxStaSpcg=0.5   AddAtElmInt=Yes   AddAtPtLoad=Yes
   Frame=155   StationType=MaxStaSpcg   MaxStaSpcg=0.5   AddAtElmInt=Yes   AddAtPtLoad=Yes
   Frame=156   StationType=MaxStaSpcg   MaxStaSpcg=0.5   AddAtElmInt=Yes   AddAtPtLoad=Yes
   Frame=157   StationType=MaxStaSpcg   MaxStaSpcg=0.5   AddAtElmInt=Yes   AddAtPtLoad=Yes
   Frame=158   StationType=MaxStaSpcg   MaxStaSpcg=0.5   AddAtElmInt=Yes   AddAtPtLoad=Yes
   Frame=159   StationType=MaxStaSpcg   MaxStaSpcg=0.5   AddAtElmInt=Yes   AddAtPtLoad=Yes
   Frame=162   StationType=MaxStaSpcg   MaxStaSpcg=0.5   AddAtElmInt=Yes   AddAtPtLoad=Yes
   Frame=163   StationType=MaxStaSpcg   MaxStaSpcg=0.5   AddAtElmInt=Yes   AddAtPtLoad=Yes
   Frame=164   StationType=MaxStaSpcg   MaxStaSpcg=0.5   AddAtElmInt=Yes   AddAtPtLoad=Yes
   Frame=165   StationType=MaxStaSpcg   MaxStaSpcg=0.5   AddAtElmInt=Yes   AddAtPtLoad=Yes
   Frame=166   StationType=MaxStaSpcg   MaxStaSpcg=0.5   AddAtElmInt=Yes   AddAtPtLoad=Yes
   Frame=167   StationType=MaxStaSpcg   MaxStaSpcg=0.5   AddAtElmInt=Yes   AddAtPtLoad=Yes
 
TABLE:  "FRAME RELEASE ASSIGNMENTS 1 - GENERAL"
   Frame=1   PI=No   V2I=No   V3I=No   TI=No   M2I=Yes   M3I=Yes   PJ=No   V2J=No   V3J=No   TJ=No   M2J=Yes   M3J=Yes
   Frame=2   PI=No   V2I=No   V3I=No   TI=No   M2I=Yes   M3I=Yes   PJ=No   V2J=No   V3J=No   TJ=No   M2J=Yes   M3J=Yes
   Frame=3   PI=No   V2I=No   V3I=No   TI=No   M2I=Yes   M3I=Yes   PJ=No   V2J=No   V3J=No   TJ=No   M2J=Yes   M3J=Yes
   Frame=4   PI=No   V2I=No   V3I=No   TI=No   M2I=Yes   M3I=Yes   PJ=No   V2J=No   V3J=No   TJ=No   M2J=Yes   M3J=Yes
   Frame=5   PI=No   V2I=No   V3I=No   TI=No   M2I=Yes   M3I=Yes   PJ=No   V2J=No   V3J=No   TJ=No   M2J=Yes   M3J=Yes
   Frame=6   PI=No   V2I=No   V3I=No   TI=No   M2I=Yes   M3I=Yes   PJ=No   V2J=No   V3J=No   TJ=No   M2J=Yes   M3J=Yes
   Frame=7   PI=No   V2I=No   V3I=No   TI=No   M2I=Yes   M3I=Yes   PJ=No   V2J=No   V3J=No   TJ=No   M2J=Yes   M3J=Yes
   Frame=8   PI=No   V2I=No   V3I=No   TI=No   M2I=Yes   M3I=Yes   PJ=No   V2J=No   V3J=No   TJ=No   M2J=Yes   M3J=Yes
   Frame=9   PI=No   V2I=No   V3I=No   TI=No   M2I=Yes   M3I=Yes   PJ=No   V2J=No   V3J=No   TJ=No   M2J=Yes   M3J=Yes
   Frame=10   PI=No   V2I=No   V3I=No   TI=No   M2I=Yes   M3I=Yes   PJ=No   V2J=No   V3J=No   TJ=No   M2J=Yes   M3J=Yes
   Frame=11   PI=No   V2I=No   V3I=No   TI=No   M2I=Yes   M3I=Yes   PJ=No   V2J=No   V3J=No   TJ=No   M2J=Yes   M3J=Yes
   Frame=12   PI=No   V2I=No   V3I=No   TI=No   M2I=Yes   M3I=Yes   PJ=No   V2J=No   V3J=No   TJ=No   M2J=Yes   M3J=Yes
   Frame=13   PI=No   V2I=No   V3I=No   TI=No   M2I=Yes   M3I=Yes   PJ=No   V2J=No   V3J=No   TJ=No   M2J=Yes   M3J=Yes
   Frame=14   PI=No   V2I=No   V3I=No   TI=No   M2I=Yes   M3I=Yes   PJ=No   V2J=No   V3J=No   TJ=No   M2J=Yes   M3J=Yes
   Frame=15   PI=No   V2I=No   V3I=No   TI=No   M2I=Yes   M3I=Yes   PJ=No   V2J=No   V3J=No   TJ=No   M2J=Yes   M3J=Yes
   Frame=16   PI=No   V2I=No   V3I=No   TI=No   M2I=Yes   M3I=Yes   PJ=No   V2J=No   V3J=No   TJ=No   M2J=Yes   M3J=Yes
   Frame=17   PI=No   V2I=No   V3I=No   TI=No   M2I=Yes   M3I=Yes   PJ=No   V2J=No   V3J=No   TJ=No   M2J=Yes   M3J=Yes
   Frame=18   PI=No   V2I=No   V3I=No   TI=No   M2I=Yes   M3I=Yes   PJ=No   V2J=No   V3J=No   TJ=No   M2J=Yes   M3J=Yes
   Frame=19   PI=No   V2I=No   V3I=No   TI=No   M2I=Yes   M3I=Yes   PJ=No   V2J=No   V3J=No   TJ=No   M2J=Yes   M3J=Yes
   Frame=20   PI=No   V2I=No   V3I=No   TI=No   M2I=Yes   M3I=Yes   PJ=No   V2J=No   V3J=No   TJ=No   M2J=Yes   M3J=Yes
# ... 4 like lines cut
 
TABLE:  "FRAME SECTION ASSIGNMENTS"
   Frame=1   AutoSelect=N.A.   AnalSect="Controventi - 60.3. - 5"   MatProp=Default
   Frame=2   AutoSelect=N.A.   AnalSect="Controventi - 60.3. - 5"   MatProp=Default
   Frame=3   AutoSelect=N.A.   AnalSect="Controventi - 60.3. - 5"   MatProp=Default
   Frame=4   AutoSelect=N.A.   AnalSect="Controventi - 60.3. - 5"   MatProp=Default
   Frame=5   AutoSelect=N.A.   AnalSect="Controventi - 60.3. - 5"   MatProp=Default
   Frame=6   AutoSelect=N.A.   AnalSect="Controventi - 60.3. - 5"   MatProp=Default
   Frame=7   AutoSelect=N.A.   AnalSect="Controventi - 60.3. - 5"   MatProp=Default
   Frame=8   AutoSelect=N.A.   AnalSect="Controventi - 60.3. - 5"   MatProp=Default
   Frame=9   AutoSelect=N.A.   AnalSect="Controventi - 60.3. - 5"   MatProp=Default
   Frame=10   AutoSelect=N.A.   AnalSect="Controventi - 60.3. - 5"   MatProp=Default
   Frame=11   AutoSelect=N.A.   AnalSect="Controventi - 60.3. - 5"   MatProp=Default
   Frame=12   AutoSelect=N.A.   AnalSect="Controventi - 60.3. - 5"   MatProp=Default
   Frame=13   AutoSelect=N.A.   AnalSect="Controventi - 60.3. - 5"   MatProp=Default
   Frame=14   AutoSelect=N.A.   AnalSect="Controventi - 60.3. - 5"   MatProp=Default
   Frame=15   AutoSelect=N.A.   AnalSect="Controventi - 60.3. - 5"   MatProp=Default
   Frame=16   AutoSelect=N.A.   AnalSect="Controventi - 60.3. - 5"   MatProp=Default
   Frame=17   AutoSelect=N.A.   AnalSect="Controventi - 60.3. - 5"   MatProp=Default
   Frame=18   AutoSelect=N.A.   AnalSect="Controventi - 60.3. - 5"   MatProp=Default
   Frame=19   AutoSelect=N.A.   AnalSect="Controventi - 60.3. - 5"   MatProp=Default
   Frame=20   AutoSelect=N.A.   AnalSect="Controventi - 60.3. - 5"   MatProp=Default
# ... 16 like lines cut
   Frame=94   AutoSelect=N.A.   AnalSect="c.q. 120 - 0.012"   MatProp=Default
   Frame=95   AutoSelect=N.A.   AnalSect="c.q. 120 - 0.012"   MatProp=Default
   Frame=96   AutoSelect=N.A.   AnalSect="c.q. 120 - 0.012"   MatProp=Default
   Frame=98   AutoSelect=N.A.   AnalSect="c.q. 120 - 0.012"   MatProp=Default
   Frame=99   AutoSelect=N.A.   AnalSect="c.q. 120 - 0.012"   MatProp=Default
   Frame=100   AutoSelect=N.A.   AnalSect="c.q. 120 - 0.012"   MatProp=Default
   Frame=102   AutoSelect=N.A.   AnalSect="c.q. 120 - 0.012"   MatProp=Default
   Frame=103   AutoSelect=N.A.   AnalSect="c.q. 120 - 0.012"   MatProp=Default
   Frame=104   AutoSelect=N.A.   AnalSect="c.q. 120 - 0.012"   MatProp=Default
   Frame=106   AutoSelect=N.A.   AnalSect="c.q. 120 - 0.012"   MatProp=Default
   Frame=107   AutoSelect=N.A.   AnalSect="c.q. 120 - 0.012"   MatProp=Default
   Frame=108   AutoSelect=N.A.   AnalSect="c.q. 120 - 0.012"   MatProp=Default
   Frame=110   AutoSelect=N.A.   AnalSect="c.q. 120 - 0.012"   MatProp=Default
   Frame=111   AutoSelect=N.A.   AnalSect="c.q. 120 - 0.012"   MatProp=Default
   Frame=112   AutoSelect=N.A.   AnalSect="c.q. 120 - 0.012"   MatProp=Default
   Frame=113   AutoSelect=N.A.   AnalSect="c.q. 120 - 0.012"   MatProp=Default
   Frame=114   AutoSelect=N.A.   AnalSect="c.q. 120 - 0.012"   MatProp=Default
   Frame=115   AutoSelect=N.A.   AnalSect="c.q. 120 - 0.012"   MatProp=Default
   Frame=136   AutoSelect=N.A.   AnalSect="c.q. 120 - 0.012"   MatProp=Default
   Frame=137   AutoSelect=N.A.   AnalSect="c.q. 120 - 0.012"   MatProp=Default
# ... 28 like lines cut
 
TABLE:  "FRAME SECTION PROPERTIES 01 - GENERAL"
   SectionName="c.q. 120 - 0.012"   Material=MAT   Shape=Box/Tube   t3=0.16   t2=0.16   tf=0.016   tw=0.016   Area=0.009216   TorsConst=0.000047775744   I33=0.000032243712   I22=0.000032243712   AS2=0.00512   AS3=0.00512   S33=0.0004030464 _
        S22=0.0004030464   Z33=0.000499712   Z22=0.000499712   R33=5.91495280341836E-02   R22=5.91495280341836E-02   Color=Black   FromFile=No   AMod=1   A2Mod=1   A3Mod=1   JMod=1   I2Mod=1   I3Mod=1   MMod=1   WMod=1   Notes="Added 12/03/2015 17:36:30"
   SectionName="Controventi - 60.3. - 5"   Material=MAT   Shape=Pipe   t3=0.0683   tw=0.005   Area=9.9431407486117E-04   TorsConst=1.002241243823E-06   I33=5.011206219115E-07   I22=5.011206219115E-07   AS2=4.99220671240205E-04 _
        AS3=4.99220671240205E-04   S33=1.46741031306442E-05   S22=1.46741031306442E-05   Z33=2.00761166666667E-05   Z22=2.00761166666667E-05   R33=2.24496380817153E-02   R22=2.24496380817153E-02   Color=Red   FromFile=No   AMod=1   A2Mod=1 _
        A3Mod=1   JMod=1   I2Mod=1   I3Mod=1   MMod=1   WMod=1   Notes="Added 12/03/2015 18:31:49"
 
TABLE:  "FUNCTION - PLOT FUNCTIONS"
   PlotFunc="Input Energy"   Type=Energy   Component=Input   Mode=All
 
TABLE:  "FUNCTION - POWER SPECTRAL DENSITY - USER"
   Name=UNIFPSD   Frequency=0   Value=1
   Name=UNIFPSD   Frequency=1   Value=1
 
TABLE:  "FUNCTION - RESPONSE SPECTRUM - USER"
   Name=UNIFRS   Period=0   Accel=1   FuncDamp=0.05
   Name=UNIFRS   Period=1   Accel=1
 
TABLE:  "FUNCTION - STEADY STATE - USER"
   Name=UNIFSS   Frequency=0   Value=1
   Name=UNIFSS   Frequency=1   Value=1
 
TABLE:  "FUNCTION - TIME HISTORY - USER"
   Name=RAMPTH   Time=0   Value=0
   Name=RAMPTH   Time=1   Value=1
   Name=RAMPTH   Time=4   Value=1
   Name=UNIFTH   Time=0   Value=1
   Name=UNIFTH   Time=1   Value=1
 
TABLE:  "GRID LINES"
   CoordSys=GLOBAL   AxisDir=X   GridID=A   XRYZCoord=0   LineType=Primary   LineColor=Gray8Dark   Visible=Yes   BubbleLoc=End   AllVisible=Yes   BubbleSize=1.25
   CoordSys=GLOBAL   AxisDir=X   GridID=B   XRYZCoord=1.95   LineType=Primary   LineColor=8355711   Visible=Yes   BubbleLoc=End
   CoordSys=GLOBAL   AxisDir=Y   GridID=1   XRYZCoord=0   LineType=Primary   LineColor=Gray8Dark   Visible=Yes   BubbleLoc=Start
   CoordSys=GLOBAL   AxisDir=Y   GridID=2   XRYZCoord=0.375   LineType=Primary   LineColor=8355711   Visible=Yes   BubbleLoc=Start
   CoordSys=GLOBAL   AxisDir=Y   GridID=3   XRYZCoord=1.375   LineType=Primary   LineColor=Gray8Dark   Visible=Yes   BubbleLoc=Start
   CoordSys=GLOBAL   AxisDir=Y   GridID=4   XRYZCoord=1.75   LineType=Primary   LineColor=Gray8Dark   Visible=Yes   BubbleLoc=Start
   CoordSys=GLOBAL   AxisDir=Z   GridID=Z1   XRYZCoord=0   LineType=Primary   LineColor=Gray8Dark   Visible=Yes   BubbleLoc=End
   CoordSys=GLOBAL   AxisDir=Z   GridID=Z2   XRYZCoord=3   LineType=Primary   LineColor=Gray8Dark   Visible=Yes   BubbleLoc=End
   CoordSys=GLOBAL   AxisDir=Z   GridID=Z3   XRYZCoord=6   LineType=Primary   LineColor=Gray8Dark   Visible=Yes   BubbleLoc=End
   CoordSys=GLOBAL   AxisDir=Z   GridID=Z4   XRYZCoord=9   LineType=Primary   LineColor=Gray8Dark   Visible=Yes   BubbleLoc=End
   CoordSys=GLOBAL   AxisDir=Z   GridID=Z5   XRYZCoord=12   LineType=Primary   LineColor=Gray8Dark   Visible=Yes   BubbleLoc=End
   CoordSys=GLOBAL   AxisDir=Z   GridID=Z6   XRYZCoord=15   LineType=Primary   LineColor=Gray8Dark   Visible=Yes   BubbleLoc=End
   CoordSys=GLOBAL   AxisDir=Z   GridID=Z7   XRYZCoord=18.4   LineType=Primary   LineColor=Gray8Dark   Visible=Yes   BubbleLoc=End
 
TABLE:  "GROUPS 1 - DEFINITIONS"
   GroupName=ALL   Selection=Yes   SectionCut=Yes   Steel=Yes   Concrete=Yes   Aluminum=Yes   ColdFormed=Yes   Stage=Yes   Bridge=Yes   AutoSeismic=No   AutoWind=No   SelDesSteel=No   SelDesAlum=No   SelDesCold=No   MassWeight=Yes   Color=Red
 
TABLE:  "JOINT COORDINATES"
   Joint=58   CoordSys=GLOBAL   CoordType=Cartesian   XorR=1.95   Y=1.75   Z=0   SpecialJt=No
   Joint=59   CoordSys=GLOBAL   CoordType=Cartesian   XorR=1.95   Y=0   Z=0   SpecialJt=No
   Joint=60   CoordSys=GLOBAL   CoordType=Cartesian   XorR=1.95   Y=0   Z=3   SpecialJt=No
   Joint=61   CoordSys=GLOBAL   CoordType=Cartesian   XorR=1.95   Y=1.75   Z=3   SpecialJt=No
   Joint=62   CoordSys=GLOBAL   CoordType=Cartesian   XorR=1.95   Y=0   Z=6   SpecialJt=No
   Joint=63   CoordSys=GLOBAL   CoordType=Cartesian   XorR=1.95   Y=1.75   Z=6   SpecialJt=No
   Joint=64   CoordSys=GLOBAL   CoordType=Cartesian   XorR=1.95   Y=0   Z=9   SpecialJt=No
   Joint=65   CoordSys=GLOBAL   CoordType=Cartesian   XorR=1.95   Y=1.75   Z=9   SpecialJt=No
   Joint=66   CoordSys=GLOBAL   CoordType=Cartesian   XorR=1.95   Y=0   Z=12   SpecialJt=No
   Joint=67   CoordSys=GLOBAL   CoordType=Cartesian   XorR=1.95   Y=1.75   Z=12   SpecialJt=No
   Joint=68   CoordSys=GLOBAL   CoordType=Cartesian   XorR=1.95   Y=0   Z=15   SpecialJt=No
   Joint=69   CoordSys=GLOBAL   CoordType=Cartesian   XorR=1.95   Y=1.75   Z=15   SpecialJt=No
   Joint=70   CoordSys=GLOBAL   CoordType=Cartesian   XorR=1.95   Y=1.75   Z=18.4   SpecialJt=No
   Joint=71   CoordSys=GLOBAL   CoordType=Cartesian   XorR=1.95   Y=0   Z=18.4   SpecialJt=No
   Joint=86   CoordSys=GLOBAL   CoordType=Cartesian   XorR=0   Y=1.75   Z=0   SpecialJt=No
   Joint=87   CoordSys=GLOBAL   CoordType=Cartesian   XorR=0   Y=0   Z=0   SpecialJt=No
   Joint=88   CoordSys=GLOBAL   CoordType=Cartesian   XorR=0   Y=0   Z=3   SpecialJt=No
   Joint=89   CoordSys=GLOBAL   CoordType=Cartesian   XorR=0   Y=1.75   Z=3   SpecialJt=No
   Joint=90   CoordSys=GLOBAL   CoordType=Cartesian   XorR=0   Y=0   Z=6   SpecialJt=No
   Joint=91   CoordSys=GLOBAL   CoordType=Cartesian   XorR=0   Y=1.75   Z=6   SpecialJt=No
# ... 4 like lines cut
   Joint=96   CoordSys=GLOBAL   CoordType=Cartesian   XorR=0   Y=0   Z=15   SpecialJt=Yes
   Joint=97   CoordSys=GLOBAL   CoordType=Cartesian   XorR=0   Y=1.75   Z=15   SpecialJt=No
   Joint=98   CoordSys=GLOBAL   CoordType=Cartesian   XorR=0   Y=1.75   Z=18.4   SpecialJt=No
   Joint=99   CoordSys=GLOBAL   CoordType=Cartesian   XorR=0   Y=0   Z=18.4   SpecialJt=No
   Joint=104   CoordSys=GLOBAL   CoordType=Cartesian   XorR=0   Y=0.375   Z=18.4   SpecialJt=Yes
   Joint=105   CoordSys=GLOBAL   CoordType=Cartesian   XorR=0   Y=1.375   Z=18.4   SpecialJt=Yes
   Joint=106   CoordSys=GLOBAL   CoordType=Cartesian   XorR=0   Y=0.375   Z=15   SpecialJt=Yes
   Joint=107   CoordSys=GLOBAL   CoordType=Cartesian   XorR=0   Y=1.375   Z=15   SpecialJt=Yes
 
TABLE:  "JOINT LOADS - FORCE"
   Joint=58   LoadPat=F-vento   CoordSys=GLOBAL   F1=0   F2=2.2   F3=0   M1=0   M2=0   M3=0
   Joint=60   LoadPat=F-vento   CoordSys=GLOBAL   F1=-3   F2=2.2   F3=0   M1=0   M2=0   M3=0
   Joint=61   LoadPat=F-vento   CoordSys=GLOBAL   F1=-3   F2=0   F3=0   M1=0   M2=0   M3=0
   Joint=62   LoadPat=F-vento   CoordSys=GLOBAL   F1=-3   F2=2.2   F3=0   M1=0   M2=0   M3=0
   Joint=63   LoadPat=F-vento   CoordSys=GLOBAL   F1=-3   F2=0   F3=0   M1=0   M2=0   M3=0
   Joint=64   LoadPat=F-vento   CoordSys=GLOBAL   F1=-3   F2=2.2   F3=0   M1=0   M2=0   M3=0
   Joint=65   LoadPat=F-vento   CoordSys=GLOBAL   F1=-3   F2=0   F3=0   M1=0   M2=0   M3=0
   Joint=66   LoadPat=F-vento   CoordSys=GLOBAL   F1=-3.2   F2=2.4   F3=0   M1=0   M2=0   M3=0
   Joint=67   LoadPat=F-vento   CoordSys=GLOBAL   F1=-3.2   F2=0   F3=0   M1=0   M2=0   M3=0
   Joint=68   LoadPat=F-vento   CoordSys=GLOBAL   F1=-3.5   F2=2.6   F3=0   M1=0   M2=0   M3=0
   Joint=69   LoadPat=F-vento   CoordSys=GLOBAL   F1=-3.5   F2=0   F3=0   M1=0   M2=0   M3=0
   Joint=70   LoadPat=F-vento   CoordSys=GLOBAL   F1=-1.8   F2=0   F3=0   M1=0   M2=0   M3=0
   Joint=71   LoadPat=F-vento   CoordSys=GLOBAL   F1=-1.8   F2=1.4   F3=0   M1=0   M2=0   M3=0
   Joint=88   LoadPat=F-vento   CoordSys=GLOBAL   F1=0   F2=2.2   F3=0   M1=0   M2=0   M3=0
   Joint=90   LoadPat=F-vento   CoordSys=GLOBAL   F1=0   F2=2.2   F3=0   M1=0   M2=0   M3=0
   Joint=92   LoadPat=F-vento   CoordSys=GLOBAL   F1=0   F2=2.2   F3=0   M1=0   M2=0   M3=0
   Joint=94   LoadPat=F-vento   CoordSys=GLOBAL   F1=0   F2=2.4   F3=0   M1=0   M2=0   M3=0
   Joint=96   LoadPat=F-vento   CoordSys=GLOBAL   F1=0   F2=2.6   F3=0   M1=0   M2=0   M3=0
   Joint=99   LoadPat=F-vento   CoordSys=GLOBAL   F1=0   F2=1.4   F3=0   M1=0   M2=0   M3=0
   Joint=104   LoadPat=S-puntone   CoordSys=GLOBAL   F1=-2.3   F2=9.1   F3=0   M1=0   M2=0   M3=0
   Joint=105   LoadPat=S-puntone   CoordSys=GLOBAL   F1=-2.3   F2=-9.1   F3=0   M1=0   M2=0   M3=0
   Joint=106   LoadPat=S-puntone   CoordSys=GLOBAL   F1=-2.3   F2=9.1   F3=0   M1=0   M2=0   M3=0
   Joint=107   LoadPat=S-puntone   CoordSys=GLOBAL   F1=-2.3   F2=-9.1   F3=0   M1=0   M2=0   M3=0
 
TABLE:  "JOINT PATTERN DEFINITIONS"
   Pattern=Default
 
TABLE:  "JOINT RESTRAINT ASSIGNMENTS"
   Joint=58   U1=Yes   U2=Yes   U3=Yes   R1=Yes   R2=Yes   R3=Yes
   Joint=59   U1=Yes   U2=Yes   U3=Yes   R1=Yes   R2=Yes   R3=Yes
   Joint=86   U1=Yes   U2=Yes   U3=Yes   R1=Yes   R2=Yes   R3=Yes
   Joint=87   U1=Yes   U2=Yes   U3=Yes   R1=Yes   R2=Yes   R3=Yes
 
TABLE:  "LOAD CASE DEFINITIONS"
   Case=DEAD   Type=LinStatic   InitialCond=Zero   DesTypeOpt="Prog Det"   DesignType=DEAD   AutoType=None   RunCase=Yes
   Case=Vetro   Type=LinStatic   InitialCond=Zero   DesTypeOpt="Prog Det"   DesignType=DEAD   AutoType=None   RunCase=Yes
   Case=S-puntone   Type=LinStatic   InitialCond=Zero   DesTypeOpt="Prog Det"   DesignType=DEAD   AutoType=None   RunCase=Yes
   Case=S-tirante   Type=LinStatic   InitialCond=Zero   DesTypeOpt="Prog Det"   DesignType=OTHER   AutoType=None   RunCase=Yes
   Case=F-vento   Type=LinStatic   InitialCond=Zero   DesTypeOpt="Prog Det"   DesignType=WIND   AutoType=None   RunCase=Yes
   Case=Q-neve   Type=LinStatic   InitialCond=Zero   DesTypeOpt="Prog Det"   DesignType=LIVE   AutoType=None   RunCase=Yes
   Case=P_delta   Type=NonStatic   InitialCond=Zero   DesTypeOpt="Prog Det"   DesignType=OTHER   AutoType=None   RunCase=Yes
   Case="Buckling total"   Type=LinBuckling   InitialCond=P_delta   DesTypeOpt="Prog Det"   DesignType=OTHER   AutoType=None   RunCase=Yes
   Case="vetro 2"   Type=LinStatic   InitialCond=Zero   DesTypeOpt="Prog Det"   DesignType=DEAD   AutoType=None   RunCase=Yes
   Case=Porta   Type=LinStatic   InitialCond=Zero   DesTypeOpt="Prog Det"   DesignType=DEAD   AutoType=None   RunCase=Yes
 
TABLE:  "LOAD PATTERN DEFINITIONS"
   LoadPat=DEAD   DesignType=DEAD   SelfWtMult=1
   LoadPat=Vetro   DesignType=DEAD   SelfWtMult=1
   LoadPat=S-puntone   DesignType=DEAD   SelfWtMult=1
   LoadPat=F-vento   DesignType=WIND   SelfWtMult=0   AutoLoad=None
   LoadPat=Q-neve   DesignType=LIVE   SelfWtMult=0
   LoadPat="vetro 2"   DesignType=DEAD   SelfWtMult=0
   LoadPat=Porta   DesignType=DEAD   SelfWtMult=0
 
TABLE:  "MASSES 1 - MASS SOURCE"
   MassFrom=Elements
 
TABLE:  "MATERIAL PROPERTIES 01 - GENERAL"
   Material=4000Psi   Type=Concrete   SymType=Isotropic   TempDepend=No   Color=Blue   Notes="Normalweight f'c = 4 ksi added 06/03/2015 12:50:40"
   Material=A992Fy50   Type=Steel   SymType=Isotropic   TempDepend=No   Color=Gray8Dark   Notes="ASTM A992 Fy=50 ksi added 06/03/2015 12:50:40"
   Material=MAT   Type=Steel   SymType=Isotropic   TempDepend=No   Color=10461087   Notes="ASTM A36 added 06/03/2015 12:53:27"
 
TABLE:  "MATERIAL PROPERTIES 02 - BASIC MECHANICAL PROPERTIES"
   Material=4000Psi   UnitWeight=23.563121614979   UnitMass=2.40276960611018   E1=24855578.2847654   G12=10356490.9519856   U12=0.2   A1=0.0000099
   Material=A992Fy50   UnitWeight=76.9728639422648   UnitMass=7.84904737995992   E1=199947978.795958   G12=76903068.767676   U12=0.3   A1=0.0000117
   Material=MAT   UnitWeight=76.9728639422648   UnitMass=7.84904737995992   E1=199947978.795958   G12=76903068.767676   U12=0.3   A1=0.0000117
 
TABLE:  "MATERIAL PROPERTIES 03A - STEEL DATA"
   Material=A992Fy50   Fy=344737.894475789   Fu=448159.262818526   EffFy=379211.683923368   EffFu=492975.189100378   SSCurveOpt=Simple   SSHysType=Kinematic   SHard=0.015   SMax=0.11   SRup=0.17   FinalSlope=-0.1
   Material=MAT   Fy=248211.284022568   Fu=399895.957591915   EffFy=372316.926033852   EffFu=439885.553351107   SSCurveOpt=Simple   SSHysType=Kinematic   SHard=0.02   SMax=0.14   SRup=0.2   FinalSlope=-0.1
 
TABLE:  "MATERIAL PROPERTIES 03B - CONCRETE DATA"
   Material=4000Psi   Fc=27579.0315580631   LtWtConc=No   SSCurveOpt=Mander   SSHysType=Takeda   SFc=2.21914221766202E-03   SCap=0.005   FinalSlope=-0.1   FAngle=0   DAngle=0
 
TABLE:  "MATERIAL PROPERTIES 06 - DAMPING PARAMETERS"
   Material=4000Psi   ModalRatio=0   VisMass=0   VisStiff=0   HysMass=0   HysStiff=0
   Material=A992Fy50   ModalRatio=0   VisMass=0   VisStiff=0   HysMass=0   HysStiff=0
   Material=MAT   ModalRatio=0   VisMass=0   VisStiff=0   HysMass=0   HysStiff=0
 
TABLE:  "OPTIONS - COLORS - DISPLAY"
   DeviceType=Screen   Points=986895   LinesFrame=986895   LinesFrmExt=Yellow   LinesCable=Green   LinesTendon=Green   SpringLinks=Red   Restraints=Green   Releases=Green   Axes=Red   Text=Green   ShadowLines=986895   GuideLines=8355711 _
        Highlight=Red   Selection=White   AreaFillBot=Red   AreaFillTop=16744703   AreaFillSd=Red   AreaEdge=DarkRed   SolidF1=Red   SolidF2=Blue   SolidF3=Green   SolidF4=Yellow   SolidF5=White   SolidF6=Cyan   SolidEdge=DarkRed _
        Floor=Gray4   Background=White   BGLowLeft=White   BGLowRight=White   BGUpRight=White   Darkness=0.5
   DeviceType=Printer   Points=Gray8Dark   LinesFrame=Black   LinesFrmExt=Gray4   LinesCable=Black   LinesTendon=Black   SpringLinks=Gray8Dark   Restraints=Gray8Dark   Releases=Gray4   Axes=Black   Text=Black   ShadowLines=Gray4 _
        GuideLines=Gray4   Highlight=Black   Selection=Black   AreaFillBot=Gray4   AreaFillTop=Gray8Dark   AreaFillSd=Gray4   AreaEdge=Black   SolidF1=Gray1Light   SolidF2=Gray2   SolidF3=Gray3   SolidF4=Gray4   SolidF5=Gray5 _
        SolidF6=Gray6   SolidEdge=Black   Floor=Gray4   Background=White   BGLowLeft=White   BGLowRight=White   BGUpRight=White   Darkness=0.5
   DeviceType="Color Printer"   Points=Black   LinesFrame=7303023   LinesFrmExt=White   LinesCable=Green   LinesTendon=Green   SpringLinks=Green   Restraints=9408399   Releases=Green   Axes=Cyan   Text=Black   ShadowLines=Gray8Dark _
        GuideLines=10461087   Highlight=Red   Selection=10504778   AreaFillBot=16634568   AreaFillTop=14277119   AreaFillSd=16634568   AreaEdge=7303023   SolidF1=10122991   SolidF2=16756912   SolidF3=11599795   SolidF4=12713983 _
        SolidF5=White   SolidF6=16777128   SolidEdge=7303023   Floor=13619151   Background=White   BGLowLeft=White   BGLowRight=14671839   BGUpRight=White   Darkness=0.5
 
TABLE:  "OPTIONS - COLORS - OUTPUT"
   DeviceType=Screen   Contour1=13107400   Contour2=6553828   Contour3=Red   Contour4=16639   Contour5=Orange   Contour6=43775   Contour7=54527   Contour8=Yellow   Contour9=65408   Contour10=Green   Contour11=8453888   Contour12=Cyan _
        Contour13=16755200   Contour14=16733440   Contour15=Blue   Transpare=0.5   Ratio1=Cyan   Ratio2=Green   Ratio3=Yellow   Ratio4=Orange   Ratio5=Red   RatioNotD=Gray4   RatioNotC=Red   RatioVal1=0.5   RatioVal2=0.7   RatioVal3=0.9 _
        RatioVal4=1   DFillPos=Yellow   DFillNeg=Red   DFillRPos=Blue   DFillRNeg=Cyan
   DeviceType=Printer   Contour1=Black   Contour2=3158064   Contour3=4210752   Contour4=5263440   Contour5=6316128   Contour6=7368816   Contour7=Gray8Dark   Contour8=Gray7   Contour9=Gray6   Contour10=Gray5   Contour11=Gray4 _
        Contour12=Gray3   Contour13=Gray2   Contour14=Gray1Light   Contour15=White   Transpare=0   Ratio1=Gray2   Ratio2=Gray4   Ratio3=Gray8Dark   Ratio4=4210752   Ratio5=Black   RatioNotD=Gray4   RatioNotC=Black   RatioVal1=0.5 _
        RatioVal2=0.7   RatioVal3=0.9   RatioVal4=1   DFillPos=Gray8Dark   DFillNeg=Gray8Dark   DFillRPos=4210752   DFillRNeg=4210752
   DeviceType="Color Printer"   Contour1=13107400   Contour2=6553828   Contour3=Red   Contour4=16639   Contour5=Orange   Contour6=43775   Contour7=54527   Contour8=Yellow   Contour9=65408   Contour10=Green   Contour11=8453888 _
        Contour12=Cyan   Contour13=16755200   Contour14=16733440   Contour15=Blue   Transpare=0.5   Ratio1=Cyan   Ratio2=Green   Ratio3=Yellow   Ratio4=Orange   Ratio5=Red   RatioNotD=Gray4   RatioNotC=Red   RatioVal1=0.5   RatioVal2=0.7 _
        RatioVal3=0.9   RatioVal4=1   DFillPos=Red   DFillNeg=Red   DFillRPos=Blue   DFillRNeg=Blue
 
TABLE:  "OVERWRITES - STEEL DESIGN - AISC-LRFD93"
   Frame=94   DesignSect="Program Determined"   FrameType="Program Determined"   Fy=0   RLLF=0   AreaRatio=0   XLMajor=0   XLMinor=0   XKMajor=0   XKMinor=0   CmMajor=0   CmMinor=0   Cb=0   B1Major=0   B1Minor=0   B2Major=0   B2Minor=0 _
        PhiPnc=0   PhiPnt=0   PhiMn3=0   PhiMn2=0   PhiVn2=0   PhiVn3=0   CheckDefl="Program Determined"   DeflType="Program Determined"   DLRat=0   SDLAndLLRat=0   LLRat=0   TotalRat=0   NetRat=0   DLAbs=0   SDLAndLLAbs=0   LLAbs=0 _
        TotalAbs=0   NetAbs=0   SpecCamber=0
   Frame=95   DesignSect="Program Determined"   FrameType="Program Determined"   Fy=0   RLLF=0   AreaRatio=0   XLMajor=0   XLMinor=0   XKMajor=0   XKMinor=0   CmMajor=0   CmMinor=0   Cb=0   B1Major=0   B1Minor=0   B2Major=0   B2Minor=0 _
        PhiPnc=0   PhiPnt=0   PhiMn3=0   PhiMn2=0   PhiVn2=0   PhiVn3=0   CheckDefl="Program Determined"   DeflType="Program Determined"   DLRat=0   SDLAndLLRat=0   LLRat=0   TotalRat=0   NetRat=0   DLAbs=0   SDLAndLLAbs=0   LLAbs=0 _
        TotalAbs=0   NetAbs=0   SpecCamber=0
   Frame=96   DesignSect="Program Determined"   FrameType="Program Determined"   Fy=0   RLLF=0   AreaRatio=0   XLMajor=0   XLMinor=0   XKMajor=0   XKMinor=0   CmMajor=0   CmMinor=0   Cb=0   B1Major=0   B1Minor=0   B2Major=0   B2Minor=0 _
        PhiPnc=0   PhiPnt=0   PhiMn3=0   PhiMn2=0   PhiVn2=0   PhiVn3=0   CheckDefl="Program Determined"   DeflType="Program Determined"   DLRat=0   SDLAndLLRat=0   LLRat=0   TotalRat=0   NetRat=0   DLAbs=0   SDLAndLLAbs=0   LLAbs=0 _
        TotalAbs=0   NetAbs=0   SpecCamber=0
   Frame=98   DesignSect="Program Determined"   FrameType="Program Determined"   Fy=0   RLLF=0   AreaRatio=0   XLMajor=0   XLMinor=0   XKMajor=0   XKMinor=0   CmMajor=0   CmMinor=0   Cb=0   B1Major=0   B1Minor=0   B2Major=0   B2Minor=0 _
        PhiPnc=0   PhiPnt=0   PhiMn3=0   PhiMn2=0   PhiVn2=0   PhiVn3=0   CheckDefl="Program Determined"   DeflType="Program Determined"   DLRat=0   SDLAndLLRat=0   LLRat=0   TotalRat=0   NetRat=0   DLAbs=0   SDLAndLLAbs=0   LLAbs=0 _
        TotalAbs=0   NetAbs=0   SpecCamber=0
   Frame=99   DesignSect="Program Determined"   FrameType="Program Determined"   Fy=0   RLLF=0   AreaRatio=0   XLMajor=0   XLMinor=0   XKMajor=0   XKMinor=0   CmMajor=0   CmMinor=0   Cb=0   B1Major=0   B1Minor=0   B2Major=0   B2Minor=0 _
        PhiPnc=0   PhiPnt=0   PhiMn3=0   PhiMn2=0   PhiVn2=0   PhiVn3=0   CheckDefl="Program Determined"   DeflType="Program Determined"   DLRat=0   SDLAndLLRat=0   LLRat=0   TotalRat=0   NetRat=0   DLAbs=0   SDLAndLLAbs=0   LLAbs=0 _
        TotalAbs=0   NetAbs=0   SpecCamber=0
   Frame=100   DesignSect="Program Determined"   FrameType="Program Determined"   Fy=0   RLLF=0   AreaRatio=0   XLMajor=0   XLMinor=0   XKMajor=0   XKMinor=0   CmMajor=0   CmMinor=0   Cb=0   B1Major=0   B1Minor=0   B2Major=0   B2Minor=0 _
        PhiPnc=0   PhiPnt=0   PhiMn3=0   PhiMn2=0   PhiVn2=0   PhiVn3=0   CheckDefl="Program Determined"   DeflType="Program Determined"   DLRat=0   SDLAndLLRat=0   LLRat=0   TotalRat=0   NetRat=0   DLAbs=0   SDLAndLLAbs=0   LLAbs=0 _
        TotalAbs=0   NetAbs=0   SpecCamber=0
   Frame=102   DesignSect="Program Determined"   FrameType="Program Determined"   Fy=0   RLLF=0   AreaRatio=0   XLMajor=0   XLMinor=0   XKMajor=0   XKMinor=0   CmMajor=0   CmMinor=0   Cb=0   B1Major=0   B1Minor=0   B2Major=0   B2Minor=0 _
        PhiPnc=0   PhiPnt=0   PhiMn3=0   PhiMn2=0   PhiVn2=0   PhiVn3=0   CheckDefl="Program Determined"   DeflType="Program Determined"   DLRat=0   SDLAndLLRat=0   LLRat=0   TotalRat=0   NetRat=0   DLAbs=0   SDLAndLLAbs=0   LLAbs=0 _
        TotalAbs=0   NetAbs=0   SpecCamber=0
   Frame=103   DesignSect="Program Determined"   FrameType="Program Determined"   Fy=0   RLLF=0   AreaRatio=0   XLMajor=0   XLMinor=0   XKMajor=0   XKMinor=0   CmMajor=0   CmMinor=0   Cb=0   B1Major=0   B1Minor=0   B2Major=0   B2Minor=0 _
        PhiPnc=0   PhiPnt=0   PhiMn3=0   PhiMn2=0   PhiVn2=0   PhiVn3=0   CheckDefl="Program Determined"   DeflType="Program Determined"   DLRat=0   SDLAndLLRat=0   LLRat=0   TotalRat=0   NetRat=0   DLAbs=0   SDLAndLLAbs=0   LLAbs=0 _
        TotalAbs=0   NetAbs=0   SpecCamber=0
   Frame=104   DesignSect="Program Determined"   FrameType="Program Determined"   Fy=0   RLLF=0   AreaRatio=0   XLMajor=0   XLMinor=0   XKMajor=0   XKMinor=0   CmMajor=0   CmMinor=0   Cb=0   B1Major=0   B1Minor=0   B2Major=0   B2Minor=0 _
        PhiPnc=0   PhiPnt=0   PhiMn3=0   PhiMn2=0   PhiVn2=0   PhiVn3=0   CheckDefl="Program Determined"   DeflType="Program Determined"   DLRat=0   SDLAndLLRat=0   LLRat=0   TotalRat=0   NetRat=0   DLAbs=0   SDLAndLLAbs=0   LLAbs=0 _
        TotalAbs=0   NetAbs=0   SpecCamber=0
   Frame=106   DesignSect="Program Determined"   FrameType="Program Determined"   Fy=0   RLLF=0   AreaRatio=0   XLMajor=0   XLMinor=0   XKMajor=0   XKMinor=0   CmMajor=0   CmMinor=0   Cb=0   B1Major=0   B1Minor=0   B2Major=0   B2Minor=0 _
        PhiPnc=0   PhiPnt=0   PhiMn3=0   PhiMn2=0   PhiVn2=0   PhiVn3=0   CheckDefl="Program Determined"   DeflType="Program Determined"   DLRat=0   SDLAndLLRat=0   LLRat=0   TotalRat=0   NetRat=0   DLAbs=0   SDLAndLLAbs=0   LLAbs=0 _
        TotalAbs=0   NetAbs=0   SpecCamber=0
   Frame=107   DesignSect="Program Determined"   FrameType="Program Determined"   Fy=0   RLLF=0   AreaRatio=0   XLMajor=0   XLMinor=0   XKMajor=0   XKMinor=0   CmMajor=0   CmMinor=0   Cb=0   B1Major=0   B1Minor=0   B2Major=0   B2Minor=0 _
        PhiPnc=0   PhiPnt=0   PhiMn3=0   PhiMn2=0   PhiVn2=0   PhiVn3=0   CheckDefl="Program Determined"   DeflType="Program Determined"   DLRat=0   SDLAndLLRat=0   LLRat=0   TotalRat=0   NetRat=0   DLAbs=0   SDLAndLLAbs=0   LLAbs=0 _
        TotalAbs=0   NetAbs=0   SpecCamber=0
   Frame=108   DesignSect="Program Determined"   FrameType="Program Determined"   Fy=0   RLLF=0   AreaRatio=0   XLMajor=0   XLMinor=0   XKMajor=0   XKMinor=0   CmMajor=0   CmMinor=0   Cb=0   B1Major=0   B1Minor=0   B2Major=0   B2Minor=0 _
        PhiPnc=0   PhiPnt=0   PhiMn3=0   PhiMn2=0   PhiVn2=0   PhiVn3=0   CheckDefl="Program Determined"   DeflType="Program Determined"   DLRat=0   SDLAndLLRat=0   LLRat=0   TotalRat=0   NetRat=0   DLAbs=0   SDLAndLLAbs=0   LLAbs=0 _
        TotalAbs=0   NetAbs=0   SpecCamber=0
   Frame=110   DesignSect="Program Determined"   FrameType="Program Determined"   Fy=0   RLLF=0   AreaRatio=0   XLMajor=0   XLMinor=0   XKMajor=0   XKMinor=0   CmMajor=0   CmMinor=0   Cb=0   B1Major=0   B1Minor=0   B2Major=0   B2Minor=0 _
        PhiPnc=0   PhiPnt=0   PhiMn3=0   PhiMn2=0   PhiVn2=0   PhiVn3=0   CheckDefl="Program Determined"   DeflType="Program Determined"   DLRat=0   SDLAndLLRat=0   LLRat=0   TotalRat=0   NetRat=0   DLAbs=0   SDLAndLLAbs=0   LLAbs=0 _
        TotalAbs=0   NetAbs=0   SpecCamber=0
   Frame=111   DesignSect="Program Determined"   FrameType="Program Determined"   Fy=0   RLLF=0   AreaRatio=0   XLMajor=0   XLMinor=0   XKMajor=0   XKMinor=0   CmMajor=0   CmMinor=0   Cb=0   B1Major=0   B1Minor=0   B2Major=0   B2Minor=0 _
        PhiPnc=0   PhiPnt=0   PhiMn3=0   PhiMn2=0   PhiVn2=0   PhiVn3=0   CheckDefl="Program Determined"   DeflType="Program Determined"   DLRat=0   SDLAndLLRat=0   LLRat=0   TotalRat=0   NetRat=0   DLAbs=0   SDLAndLLAbs=0   LLAbs=0 _
        TotalAbs=0   NetAbs=0   SpecCamber=0
   Frame=112   DesignSect="Program Determined"   FrameType="Program Determined"   Fy=0   RLLF=0   AreaRatio=0   XLMajor=0   XLMinor=0   XKMajor=0   XKMinor=0   CmMajor=0   CmMinor=0   Cb=0   B1Major=0   B1Minor=0   B2Major=0   B2Minor=0 _
        PhiPnc=0   PhiPnt=0   PhiMn3=0   PhiMn2=0   PhiVn2=0   PhiVn3=0   CheckDefl="Program Determined"   DeflType="Program Determined"   DLRat=0   SDLAndLLRat=0   LLRat=0   TotalRat=0   NetRat=0   DLAbs=0   SDLAndLLAbs=0   LLAbs=0 _
        TotalAbs=0   NetAbs=0   SpecCamber=0
   Frame=113   DesignSect="Program Determined"   FrameType="Program Determined"   Fy=0   RLLF=0   AreaRatio=0   XLMajor=0   XLMinor=0   XKMajor=0   XKMinor=0   CmMajor=0   CmMinor=0   Cb=0   B1Major=0   B1Minor=0   B2Major=0   B2Minor=0 _
        PhiPnc=0   PhiPnt=0   PhiMn3=0   PhiMn2=0   PhiVn2=0   PhiVn3=0   CheckDefl="Program Determined"   DeflType="Program Determined"   DLRat=0   SDLAndLLRat=0   LLRat=0   TotalRat=0   NetRat=0   DLAbs=0   SDLAndLLAbs=0   LLAbs=0 _
        TotalAbs=0   NetAbs=0   SpecCamber=0
   Frame=114   DesignSect="Program Determined"   FrameType="Program Determined"   Fy=0   RLLF=0   AreaRatio=0   XLMajor=0   XLMinor=0   XKMajor=0   XKMinor=0   CmMajor=0   CmMinor=0   Cb=0   B1Major=0   B1Minor=0   B2Major=0   B2Minor=0 _
        PhiPnc=0   PhiPnt=0   PhiMn3=0   PhiMn2=0   PhiVn2=0   PhiVn3=0   CheckDefl="Program Determined"   DeflType="Program Determined"   DLRat=0   SDLAndLLRat=0   LLRat=0   TotalRat=0   NetRat=0   DLAbs=0   SDLAndLLAbs=0   LLAbs=0 _
        TotalAbs=0   NetAbs=0   SpecCamber=0
   Frame=115   DesignSect="Program Determined"   FrameType="Program Determined"   Fy=0   RLLF=0   AreaRatio=0   XLMajor=0   XLMinor=0   XKMajor=0   XKMinor=0   CmMajor=0   CmMinor=0   Cb=0   B1Major=0   B1Minor=0   B2Major=0   B2Minor=0 _
        PhiPnc=0   PhiPnt=0   PhiMn3=0   PhiMn2=0   PhiVn2=0   PhiVn3=0   CheckDefl="Program Determined"   DeflType="Program Determined"   DLRat=0   SDLAndLLRat=0   LLRat=0   TotalRat=0   NetRat=0   DLAbs=0   SDLAndLLAbs=0   LLAbs=0 _
        TotalAbs=0   NetAbs=0   SpecCamber=0
   Frame=136   DesignSect="Program Determined"   FrameType="Program Determined"   Fy=0   RLLF=0   AreaRatio=0   XLMajor=0   XLMinor=0   XKMajor=0   XKMinor=0   CmMajor=0   CmMinor=0   Cb=0   B1Major=0   B1Minor=0   B2Major=0   B2Minor=0 _
        PhiPnc=0   PhiPnt=0   PhiMn3=0   PhiMn2=0   PhiVn2=0   PhiVn3=0   CheckDefl="Program Determined"   DeflType="Program Determined"   DLRat=0   SDLAndLLRat=0   LLRat=0   TotalRat=0   NetRat=0   DLAbs=0   SDLAndLLAbs=0   LLAbs=0 _
        TotalAbs=0   NetAbs=0   SpecCamber=0
   Frame=137   DesignSect="Program Determined"   FrameType="Program Determined"   Fy=0   RLLF=0   AreaRatio=0   XLMajor=0   XLMinor=0   XKMajor=0   XKMinor=0   CmMajor=0   CmMinor=0   Cb=0   B1Major=0   B1Minor=0   B2Major=0   B2Minor=0 _
        PhiPnc=0   PhiPnt=0   PhiMn3=0   PhiMn2=0   PhiVn2=0   PhiVn3=0   CheckDefl="Program Determined"   DeflType="Program Determined"   DLRat=0   SDLAndLLRat=0   LLRat=0   TotalRat=0   NetRat=0   DLAbs=0   SDLAndLLAbs=0   LLAbs=0 _
        TotalAbs=0   NetAbs=0   SpecCamber=0
# ... 192 like lines cut
 
TABLE:  "PREFERENCES - ALUMINUM DESIGN - AA-ASD 2000"
   THDesign=Envelopes   FrameType="Moment Frame"   SRatioLimit=1   MaxIter=1   LatFact=1.33333333333333   UseLatFact=No   Bridge=No
 
TABLE:  "PREFERENCES - COLD FORMED DESIGN - AISI-ASD96"
   THDesign=Envelopes   FrameType="Braced Frame"   SRatioLimit=1   MaxIter=1   OmegaBS=1.67   OmegaBUS=1.67   OmegaBLTB=1.67   OmegaVS=1.67   OmegaVNS=1.5   OmegaT=1.67   OmegaC=1.8
 
TABLE:  "PREFERENCES - CONCRETE DESIGN - ACI 318-05/IBC2003"
   THDesign=Envelopes   NumCurves=24   NumPoints=11   MinEccen=No   PatLLF=0.75   UFLimit=0.95   SeisCat=D   PhiT=0.9   PhiCTied=0.65   PhiCSpiral=0.7   PhiV=0.75   PhiVSeismic=0.6   PhiVJoint=0.85
 
TABLE:  "PREFERENCES - DIMENSIONAL"
   MergeTol=0.001   FineGrid=0.25   Nudge=0.25   SelectTol=3   SnapTol=12   SLineThick=1   PLineThick=4   MaxFont=8   MinFont=3   AutoZoom=10   ShrinkFact=70   TextFileLen=240
 
TABLE:  "PREFERENCES - STEEL DESIGN - AISC-LRFD93"
   THDesign=Envelopes   FrameType="Moment Frame"   PatLLF=0.75   SRatioLimit=0.95   MaxIter=1   PhiB=0.9   PhiC=0.85   PhiT=0.9   PhiV=0.9   PhiCA=0.9   CheckDefl=No   DLRat=120   SDLAndLLRat=120   LLRat=360   TotalRat=240   NetRat=240
 
TABLE:  "PROGRAM CONTROL"
   ProgramName=SAP2000   Version=14.0.0   CurrUnits="KN, m, C"   SteelCode=AISC-LRFD93   ConcCode="ACI 318-05/IBC2003"   AlumCode="AA-ASD 2000"   ColdCode=AISI-ASD96   BridgeCode="AASHTO LRFD 2007"   RegenHinge=Yes
 
TABLE:  "PROJECT INFORMATION"
   Item="Company Name"
   Item="Client Name"
   Item="Project Name"
   Item="Project Number"
   Item="Model Name"
   Item="Model Description"
   Item="Revision Number"
   Item="Frame Type"
   Item=Engineer
   Item=Checker
   Item=Supervisor
   Item="Issue Code"
   Item="Design Code"
 
TABLE:  "REBAR SIZES"
   RebarID=#2   Area=0.000032258   Diameter=0.00635
   RebarID=#3   Area=7.09675996154547E-05   Diameter=0.009525
   RebarID=#4   Area=1.29032001922727E-04   Diameter=0.0127
   RebarID=#5   Area=1.99999601538181E-04   Diameter=0.015875
   RebarID=#6   Area=2.83870398461819E-04   Diameter=0.01905
   RebarID=#7   Area=3.87096015381813E-04   Diameter=0.022225
   RebarID=#8   Area=5.09676413843632E-04   Diameter=0.0254
   RebarID=#9   Area=0.00064516   Diameter=2.86512005329132E-02
   RebarID=#10   Area=8.1935318769455E-04   Diameter=3.22579995155334E-02
   RebarID=#11   Area=1.00644956308365E-03   Diameter=3.58139991521835E-02
   RebarID=#14   Area=0.00145161   Diameter=4.30021989583969E-02
   RebarID=#18   Area=0.00258064   Diameter=5.73277992248535E-02
   RebarID=10M   Area=1.00000004162606E-04   Diameter=1.13000003604438E-02
   RebarID=15M   Area=2.00000008325212E-04   Diameter=1.60000002402959E-02
   RebarID=20M   Area=3.00000012487818E-04   Diameter=1.95000002928606E-02
   RebarID=25M   Area=5.00000020813031E-04   Diameter=2.52000011414055E-02
   RebarID=30M   Area=7.00000029138243E-04   Diameter=2.99000000675832E-02
   RebarID=35M   Area=1.00000004162606E-03   Diameter=3.57000012990997E-02
   RebarID=45M   Area=1.50000006243909E-03   Diameter=4.37000014192476E-02
   RebarID=55M   Area=2.50000010406515E-03   Diameter=0.056400002372922
   RebarID=6d   Area=2.83000004150781E-05   Diameter=6.00000009011096E-03
   RebarID=8d   Area=5.03000013308514E-05   Diameter=8.00000012014795E-03
   RebarID=10d   Area=7.85000032676458E-05   Diameter=1.00000001501849E-02
   RebarID=12d   Area=1.13000004703745E-04   Diameter=1.20000001802219E-02
   RebarID=14d   Area=1.54000006410413E-04   Diameter=1.40000002102589E-02
   RebarID=16d   Area=2.01000008366838E-04   Diameter=1.60000002402959E-02
   RebarID=20d   Area=3.14000013070583E-04   Diameter=2.00000003003699E-02
   RebarID=25d   Area=4.91000020438396E-04   Diameter=2.50000003754623E-02
   RebarID=26d   Area=5.31000022103439E-04   Diameter=2.60000003904808E-02
   RebarID=28d   Area=6.16000025641654E-04   Diameter=2.80000004205178E-02
   RebarID=N12   Area=1.13000004703745E-04   Diameter=1.20000001802219E-02
   RebarID=N16   Area=2.01000008366838E-04   Diameter=1.60000002402959E-02
   RebarID=N20   Area=3.14000013070583E-04   Diameter=2.00000003003699E-02
   RebarID=N24   Area=4.5200001881498E-04   Diameter=2.40000003604438E-02
   RebarID=N28   Area=6.16000025641654E-04   Diameter=2.80000004205178E-02
   RebarID=N32   Area=8.04000033467353E-04   Diameter=3.20000004805918E-02
   RebarID=N36   Area=1.02000004245858E-03   Diameter=3.60000005406658E-02
 
END TABLE DATA
