File C:\Users\Francesco\Desktop\Castelletto metallico\castelletto con profili a C.$2k was saved on 3/8/15 at 14:12:04
 
TABLE:  "ACTIVE DEGREES OF FREEDOM"
   UX=Yes   UY=Yes   UZ=Yes   RX=Yes   RY=Yes   RZ=Yes
 
TABLE:  "ANALYSIS OPTIONS"
   Solver=Advanced   SolverProc=Auto   Force32Bit=No   StiffCase=None   GeomMod=No
 
TABLE:  "AUTO WAVE 3 - WAVE CHARACTERISTICS - GENERAL"
   WaveChar=Default   WaveType="From Theory"   KinFactor=1   SWaterDepth=1800   WaveHeight=720   WavePeriod=12   WaveTheory=Linear
 
TABLE:  "BRIDGE DESIGN PREFERENCES - AASHTOLRFD07"
   HingeOpt="Auto: AASHTO/Caltrans Hinge"
 
TABLE:  "BRIDGE PREFERENCES"
   NorthAngle=90   MaxDiscCurv=1
 
TABLE:  "CASE - MODAL 1 - GENERAL"
   Case=MODAL   ModeType=Eigen   MaxNumModes=12   MinNumModes=1   EigenShift=0   EigenCutoff=0   EigenTol=0.000000001   AutoShift=Yes
 
TABLE:  "CASE - STATIC 1 - LOAD ASSIGNMENTS"
   Case=DEAD   LoadType="Load pattern"   LoadName=DEAD   LoadSF=1
   Case=Vetro   LoadType="Load pattern"   LoadName=Vetro   LoadSF=1
   Case="S- puntone"   LoadType="Load pattern"   LoadName="S- puntone"   LoadSF=1
   Case=Vento   LoadType="Load pattern"   LoadName=Vento   LoadSF=1
   Case=Q_neve   LoadType="Load pattern"   LoadName=Q_neve   LoadSF=1
 
TABLE:  "COMBINATION DEFINITIONS"
   ComboName=COMB1_SLU_Vento   ComboType="Linear Add"   AutoDesign=No   CaseName=DEAD   ScaleFactor=1.3   SteelDesign=No   ConcDesign=No   AlumDesign=No   ColdDesign=No
   ComboName=COMB1_SLU_Vento   CaseName="S- puntone"   ScaleFactor=1
   ComboName=COMB1_SLU_Vento   CaseName=Vento   ScaleFactor=1.5
   ComboName=COMB1_SLU_Vento   CaseName=Vetro   ScaleFactor=1.3
   ComboName=COMB1_SLU_Vento   CaseName=Q_neve   ScaleFactor=1.05
   ComboName=COMB2_SLU_Neve   ComboType="Linear Add"   AutoDesign=No   CaseName=DEAD   ScaleFactor=1.3   SteelDesign=No   ConcDesign=No   AlumDesign=No   ColdDesign=No
   ComboName=COMB2_SLU_Neve   CaseName="S- puntone"   ScaleFactor=1
   ComboName=COMB2_SLU_Neve   CaseName=Vento   ScaleFactor=1.05
   ComboName=COMB2_SLU_Neve   CaseName=Vetro   ScaleFactor=1.3
   ComboName=COMB2_SLU_Neve   CaseName=Q_neve   ScaleFactor=1.5
 
TABLE:  "CONNECTIVITY - FRAME"
   Frame=1   JointI=1   JointJ=2   IsCurved=No
   Frame=2   JointI=2   JointJ=3   IsCurved=No
   Frame=3   JointI=3   JointJ=4   IsCurved=No
   Frame=4   JointI=4   JointJ=1   IsCurved=No
   Frame=5   JointI=2   JointJ=5   IsCurved=No
   Frame=6   JointI=5   JointJ=6   IsCurved=No
   Frame=7   JointI=6   JointJ=3   IsCurved=No
   Frame=9   JointI=5   JointJ=7   IsCurved=No
   Frame=10   JointI=7   JointJ=8   IsCurved=No
   Frame=11   JointI=8   JointJ=6   IsCurved=No
   Frame=13   JointI=7   JointJ=9   IsCurved=No
   Frame=14   JointI=9   JointJ=10   IsCurved=No
   Frame=15   JointI=10   JointJ=8   IsCurved=No
   Frame=17   JointI=9   JointJ=11   IsCurved=No
   Frame=18   JointI=11   JointJ=12   IsCurved=No
   Frame=19   JointI=12   JointJ=10   IsCurved=No
   Frame=21   JointI=11   JointJ=13   IsCurved=No
   Frame=22   JointI=13   JointJ=14   IsCurved=No
   Frame=23   JointI=14   JointJ=12   IsCurved=No
   Frame=100   JointI=71   JointJ=72   IsCurved=No
# ... 32 like lines cut
 
TABLE:  "COORDINATE SYSTEMS"
   Name=GLOBAL   Type=Cartesian   X=0   Y=0   Z=0   AboutZ=0   AboutY=0   AboutX=0
 
TABLE:  "DATABASE DOCUMENTATION"
 
TABLE:  "DATABASE FORMAT TYPES"
   UnitsCurr=Yes   OverrideE=No
 
TABLE:  "FRAME AUTO MESH ASSIGNMENTS"
   Frame=1   AutoMesh=Yes   AtJoints=Yes   AtFrames=No   NumSegments=0   MaxLength=0   MaxDegrees=0
   Frame=2   AutoMesh=Yes   AtJoints=Yes   AtFrames=No   NumSegments=0   MaxLength=0   MaxDegrees=0
   Frame=3   AutoMesh=Yes   AtJoints=Yes   AtFrames=No   NumSegments=0   MaxLength=0   MaxDegrees=0
   Frame=4   AutoMesh=Yes   AtJoints=Yes   AtFrames=No   NumSegments=0   MaxLength=0   MaxDegrees=0
   Frame=5   AutoMesh=Yes   AtJoints=Yes   AtFrames=No   NumSegments=0   MaxLength=0   MaxDegrees=0
   Frame=6   AutoMesh=Yes   AtJoints=Yes   AtFrames=No   NumSegments=0   MaxLength=0   MaxDegrees=0
   Frame=7   AutoMesh=Yes   AtJoints=Yes   AtFrames=No   NumSegments=0   MaxLength=0   MaxDegrees=0
   Frame=9   AutoMesh=Yes   AtJoints=Yes   AtFrames=No   NumSegments=0   MaxLength=0   MaxDegrees=0
   Frame=10   AutoMesh=Yes   AtJoints=Yes   AtFrames=No   NumSegments=0   MaxLength=0   MaxDegrees=0
   Frame=11   AutoMesh=Yes   AtJoints=Yes   AtFrames=No   NumSegments=0   MaxLength=0   MaxDegrees=0
   Frame=13   AutoMesh=Yes   AtJoints=Yes   AtFrames=No   NumSegments=0   MaxLength=0   MaxDegrees=0
   Frame=14   AutoMesh=Yes   AtJoints=Yes   AtFrames=No   NumSegments=0   MaxLength=0   MaxDegrees=0
   Frame=15   AutoMesh=Yes   AtJoints=Yes   AtFrames=No   NumSegments=0   MaxLength=0   MaxDegrees=0
   Frame=17   AutoMesh=Yes   AtJoints=Yes   AtFrames=No   NumSegments=0   MaxLength=0   MaxDegrees=0
   Frame=18   AutoMesh=Yes   AtJoints=Yes   AtFrames=No   NumSegments=0   MaxLength=0   MaxDegrees=0
   Frame=19   AutoMesh=Yes   AtJoints=Yes   AtFrames=No   NumSegments=0   MaxLength=0   MaxDegrees=0
   Frame=21   AutoMesh=Yes   AtJoints=Yes   AtFrames=No   NumSegments=0   MaxLength=0   MaxDegrees=0
   Frame=22   AutoMesh=Yes   AtJoints=Yes   AtFrames=No   NumSegments=0   MaxLength=0   MaxDegrees=0
   Frame=23   AutoMesh=Yes   AtJoints=Yes   AtFrames=No   NumSegments=0   MaxLength=0   MaxDegrees=0
   Frame=100   AutoMesh=Yes   AtJoints=Yes   AtFrames=No   NumSegments=0   MaxLength=0   MaxDegrees=0
# ... 32 like lines cut
 
TABLE:  "FRAME DESIGN PROCEDURES"
   Frame=1   DesignProc="From Material"
   Frame=2   DesignProc="From Material"
   Frame=3   DesignProc="From Material"
   Frame=4   DesignProc="From Material"
   Frame=5   DesignProc="From Material"
   Frame=6   DesignProc="From Material"
   Frame=7   DesignProc="From Material"
   Frame=9   DesignProc="From Material"
   Frame=10   DesignProc="From Material"
   Frame=11   DesignProc="From Material"
   Frame=13   DesignProc="From Material"
   Frame=14   DesignProc="From Material"
   Frame=15   DesignProc="From Material"
   Frame=17   DesignProc="From Material"
   Frame=18   DesignProc="From Material"
   Frame=19   DesignProc="From Material"
   Frame=21   DesignProc="From Material"
   Frame=22   DesignProc="From Material"
   Frame=23   DesignProc="From Material"
   Frame=100   DesignProc="From Material"
# ... 32 like lines cut
 
TABLE:  "FRAME LOADS - DISTRIBUTED"
   Frame=2   LoadPat=Vetro   CoordSys=GLOBAL   Type=Force   Dir=Gravity   DistType=RelDist   RelDistA=0   RelDistB=1   AbsDistA=0   AbsDistB=76.7716535433071   FOverLA=1.48463813181986E-02   FOverLB=1.48463813181986E-02
   Frame=4   LoadPat=Vetro   CoordSys=GLOBAL   Type=Force   Dir=Gravity   DistType=RelDist   RelDistA=0   RelDistB=1   AbsDistA=0   AbsDistB=76.7716535433071   FOverLA=1.48463813181986E-02   FOverLB=1.48463813181986E-02
   Frame=6   LoadPat=Vetro   CoordSys=GLOBAL   Type=Force   Dir=Gravity   DistType=RelDist   RelDistA=0   RelDistB=1   AbsDistA=0   AbsDistB=76.7716535433071   FOverLA=1.48463813181986E-02   FOverLB=1.48463813181986E-02
   Frame=10   LoadPat=Vetro   CoordSys=GLOBAL   Type=Force   Dir=Gravity   DistType=RelDist   RelDistA=0   RelDistB=1   AbsDistA=0   AbsDistB=76.7716535433071   FOverLA=1.48463813181986E-02   FOverLB=1.48463813181986E-02
   Frame=14   LoadPat=Vetro   CoordSys=GLOBAL   Type=Force   Dir=Gravity   DistType=RelDist   RelDistA=0   RelDistB=1   AbsDistA=0   AbsDistB=76.7716535433071   FOverLA=1.48463813181986E-02   FOverLB=1.48463813181986E-02
   Frame=18   LoadPat=Vetro   CoordSys=GLOBAL   Type=Force   Dir=Gravity   DistType=RelDist   RelDistA=0   RelDistB=1   AbsDistA=0   AbsDistB=76.7716535433071   FOverLA=1.48463813181986E-02   FOverLB=1.48463813181986E-02
   Frame=119   LoadPat=Vetro   CoordSys=GLOBAL   Type=Force   Dir=Gravity   DistType=RelDist   RelDistA=0   RelDistB=1   AbsDistA=0   AbsDistB=68.8976377952756   FOverLA=1.48463813181986E-02   FOverLB=1.48463813181986E-02
   Frame=120   LoadPat=Vetro   CoordSys=GLOBAL   Type=Force   Dir=Gravity   DistType=RelDist   RelDistA=0   RelDistB=1   AbsDistA=0   AbsDistB=68.8976377952756   FOverLA=1.48463813181986E-02   FOverLB=1.48463813181986E-02
   Frame=121   LoadPat=Vetro   CoordSys=GLOBAL   Type=Force   Dir=Gravity   DistType=RelDist   RelDistA=0   RelDistB=1   AbsDistA=0   AbsDistB=68.8976377952756   FOverLA=1.48463813181986E-02   FOverLB=1.48463813181986E-02
   Frame=122   LoadPat=Vetro   CoordSys=GLOBAL   Type=Force   Dir=Gravity   DistType=RelDist   RelDistA=0   RelDistB=1   AbsDistA=0   AbsDistB=68.8976377952756   FOverLA=1.48463813181986E-02   FOverLB=1.48463813181986E-02
   Frame=123   LoadPat=Vetro   CoordSys=GLOBAL   Type=Force   Dir=Gravity   DistType=RelDist   RelDistA=0   RelDistB=1   AbsDistA=0   AbsDistB=68.8976377952756   FOverLA=1.48463813181986E-02   FOverLB=1.48463813181986E-02
   Frame=124   LoadPat=Vetro   CoordSys=GLOBAL   Type=Force   Dir=Gravity   DistType=RelDist   RelDistA=0   RelDistB=1   AbsDistA=0   AbsDistB=68.8976377952756   FOverLA=1.48463813181986E-02   FOverLB=1.48463813181986E-02
   Frame=125   LoadPat=Q_neve   CoordSys=GLOBAL   Type=Force   Dir=Gravity   DistType=RelDist   RelDistA=0   RelDistB=1   AbsDistA=0   AbsDistB=68.8976377952756   FOverLA=3.31188506329046E-03   FOverLB=3.31188506329046E-03
   Frame=126   LoadPat=Vetro   CoordSys=GLOBAL   Type=Force   Dir=Gravity   DistType=RelDist   RelDistA=0   RelDistB=1   AbsDistA=0   AbsDistB=68.8976377952756   FOverLA=1.48463813181986E-02   FOverLB=1.48463813181986E-02
   Frame=127   LoadPat=Vetro   CoordSys=GLOBAL   Type=Force   Dir=Gravity   DistType=RelDist   RelDistA=0   RelDistB=1   AbsDistA=0   AbsDistB=68.8976377952756   FOverLA=1.48463813181986E-02   FOverLB=1.48463813181986E-02
   Frame=128   LoadPat=Vetro   CoordSys=GLOBAL   Type=Force   Dir=Gravity   DistType=RelDist   RelDistA=0   RelDistB=1   AbsDistA=0   AbsDistB=68.8976377952756   FOverLA=1.48463813181986E-02   FOverLB=1.48463813181986E-02
   Frame=129   LoadPat=Vetro   CoordSys=GLOBAL   Type=Force   Dir=Gravity   DistType=RelDist   RelDistA=0   RelDistB=1   AbsDistA=0   AbsDistB=68.8976377952756   FOverLA=1.48463813181986E-02   FOverLB=1.48463813181986E-02
   Frame=130   LoadPat=Vetro   CoordSys=GLOBAL   Type=Force   Dir=Gravity   DistType=RelDist   RelDistA=0   RelDistB=1   AbsDistA=0   AbsDistB=68.8976377952756   FOverLA=1.48463813181986E-02   FOverLB=1.48463813181986E-02
   Frame=131   LoadPat=Vetro   CoordSys=GLOBAL   Type=Force   Dir=Gravity   DistType=RelDist   RelDistA=0   RelDistB=1   AbsDistA=0   AbsDistB=68.8976377952756   FOverLA=1.48463813181986E-02   FOverLB=1.48463813181986E-02
   Frame=132   LoadPat=Q_neve   CoordSys=GLOBAL   Type=Force   Dir=Gravity   DistType=RelDist   RelDistA=0   RelDistB=1   AbsDistA=0   AbsDistB=68.8976377952756   FOverLA=3.31188506329046E-03   FOverLB=3.31188506329046E-03
 
TABLE:  "FRAME OUTPUT STATION ASSIGNMENTS"
   Frame=1   StationType=MinNumSta   MinNumSta=3   AddAtElmInt=Yes   AddAtPtLoad=Yes
   Frame=2   StationType=MaxStaSpcg   MaxStaSpcg=24   AddAtElmInt=Yes   AddAtPtLoad=Yes
   Frame=3   StationType=MinNumSta   MinNumSta=3   AddAtElmInt=Yes   AddAtPtLoad=Yes
   Frame=4   StationType=MaxStaSpcg   MaxStaSpcg=24   AddAtElmInt=Yes   AddAtPtLoad=Yes
   Frame=5   StationType=MinNumSta   MinNumSta=3   AddAtElmInt=Yes   AddAtPtLoad=Yes
   Frame=6   StationType=MaxStaSpcg   MaxStaSpcg=24   AddAtElmInt=Yes   AddAtPtLoad=Yes
   Frame=7   StationType=MinNumSta   MinNumSta=3   AddAtElmInt=Yes   AddAtPtLoad=Yes
   Frame=9   StationType=MinNumSta   MinNumSta=3   AddAtElmInt=Yes   AddAtPtLoad=Yes
   Frame=10   StationType=MaxStaSpcg   MaxStaSpcg=24   AddAtElmInt=Yes   AddAtPtLoad=Yes
   Frame=11   StationType=MinNumSta   MinNumSta=3   AddAtElmInt=Yes   AddAtPtLoad=Yes
   Frame=13   StationType=MinNumSta   MinNumSta=3   AddAtElmInt=Yes   AddAtPtLoad=Yes
   Frame=14   StationType=MaxStaSpcg   MaxStaSpcg=24   AddAtElmInt=Yes   AddAtPtLoad=Yes
   Frame=15   StationType=MinNumSta   MinNumSta=3   AddAtElmInt=Yes   AddAtPtLoad=Yes
   Frame=17   StationType=MinNumSta   MinNumSta=3   AddAtElmInt=Yes   AddAtPtLoad=Yes
   Frame=18   StationType=MaxStaSpcg   MaxStaSpcg=24   AddAtElmInt=Yes   AddAtPtLoad=Yes
   Frame=19   StationType=MinNumSta   MinNumSta=3   AddAtElmInt=Yes   AddAtPtLoad=Yes
   Frame=21   StationType=MinNumSta   MinNumSta=3   AddAtElmInt=Yes   AddAtPtLoad=Yes
   Frame=22   StationType=MaxStaSpcg   MaxStaSpcg=24   AddAtElmInt=Yes   AddAtPtLoad=Yes
   Frame=23   StationType=MinNumSta   MinNumSta=3   AddAtElmInt=Yes   AddAtPtLoad=Yes
   Frame=100   StationType=MinNumSta   MinNumSta=3   AddAtElmInt=Yes   AddAtPtLoad=Yes
   Frame=101   StationType=MaxStaSpcg   MaxStaSpcg=24   AddAtElmInt=Yes   AddAtPtLoad=Yes
   Frame=102   StationType=MinNumSta   MinNumSta=3   AddAtElmInt=Yes   AddAtPtLoad=Yes
   Frame=103   StationType=MaxStaSpcg   MaxStaSpcg=24   AddAtElmInt=Yes   AddAtPtLoad=Yes
   Frame=104   StationType=MinNumSta   MinNumSta=3   AddAtElmInt=Yes   AddAtPtLoad=Yes
   Frame=105   StationType=MaxStaSpcg   MaxStaSpcg=24   AddAtElmInt=Yes   AddAtPtLoad=Yes
   Frame=106   StationType=MinNumSta   MinNumSta=3   AddAtElmInt=Yes   AddAtPtLoad=Yes
   Frame=107   StationType=MinNumSta   MinNumSta=3   AddAtElmInt=Yes   AddAtPtLoad=Yes
   Frame=108   StationType=MaxStaSpcg   MaxStaSpcg=24   AddAtElmInt=Yes   AddAtPtLoad=Yes
   Frame=109   StationType=MinNumSta   MinNumSta=3   AddAtElmInt=Yes   AddAtPtLoad=Yes
   Frame=110   StationType=MinNumSta   MinNumSta=3   AddAtElmInt=Yes   AddAtPtLoad=Yes
   Frame=111   StationType=MaxStaSpcg   MaxStaSpcg=24   AddAtElmInt=Yes   AddAtPtLoad=Yes
   Frame=112   StationType=MinNumSta   MinNumSta=3   AddAtElmInt=Yes   AddAtPtLoad=Yes
   Frame=113   StationType=MinNumSta   MinNumSta=3   AddAtElmInt=Yes   AddAtPtLoad=Yes
   Frame=114   StationType=MaxStaSpcg   MaxStaSpcg=24   AddAtElmInt=Yes   AddAtPtLoad=Yes
   Frame=115   StationType=MinNumSta   MinNumSta=3   AddAtElmInt=Yes   AddAtPtLoad=Yes
   Frame=116   StationType=MinNumSta   MinNumSta=3   AddAtElmInt=Yes   AddAtPtLoad=Yes
   Frame=117   StationType=MaxStaSpcg   MaxStaSpcg=24   AddAtElmInt=Yes   AddAtPtLoad=Yes
   Frame=118   StationType=MinNumSta   MinNumSta=3   AddAtElmInt=Yes   AddAtPtLoad=Yes
   Frame=119   StationType=MaxStaSpcg   MaxStaSpcg=24   AddAtElmInt=Yes   AddAtPtLoad=Yes
   Frame=120   StationType=MaxStaSpcg   MaxStaSpcg=24   AddAtElmInt=Yes   AddAtPtLoad=Yes
   Frame=121   StationType=MaxStaSpcg   MaxStaSpcg=24   AddAtElmInt=Yes   AddAtPtLoad=Yes
   Frame=122   StationType=MaxStaSpcg   MaxStaSpcg=24   AddAtElmInt=Yes   AddAtPtLoad=Yes
   Frame=123   StationType=MaxStaSpcg   MaxStaSpcg=24   AddAtElmInt=Yes   AddAtPtLoad=Yes
   Frame=124   StationType=MaxStaSpcg   MaxStaSpcg=24   AddAtElmInt=Yes   AddAtPtLoad=Yes
   Frame=125   StationType=MaxStaSpcg   MaxStaSpcg=24   AddAtElmInt=Yes   AddAtPtLoad=Yes
   Frame=126   StationType=MaxStaSpcg   MaxStaSpcg=24   AddAtElmInt=Yes   AddAtPtLoad=Yes
   Frame=127   StationType=MaxStaSpcg   MaxStaSpcg=24   AddAtElmInt=Yes   AddAtPtLoad=Yes
   Frame=128   StationType=MaxStaSpcg   MaxStaSpcg=24   AddAtElmInt=Yes   AddAtPtLoad=Yes
   Frame=129   StationType=MaxStaSpcg   MaxStaSpcg=24   AddAtElmInt=Yes   AddAtPtLoad=Yes
   Frame=130   StationType=MaxStaSpcg   MaxStaSpcg=24   AddAtElmInt=Yes   AddAtPtLoad=Yes
   Frame=131   StationType=MaxStaSpcg   MaxStaSpcg=24   AddAtElmInt=Yes   AddAtPtLoad=Yes
   Frame=132   StationType=MaxStaSpcg   MaxStaSpcg=24   AddAtElmInt=Yes   AddAtPtLoad=Yes
 
TABLE:  "FRAME SECTION ASSIGNMENTS"
   Frame=1   AutoSelect=N.A.   AnalSect="Profili a C"   MatProp=Default
   Frame=2   AutoSelect=N.A.   AnalSect="Profili a C"   MatProp=Default
   Frame=3   AutoSelect=N.A.   AnalSect="Profili a C"   MatProp=Default
   Frame=4   AutoSelect=N.A.   AnalSect="Profili a C"   MatProp=Default
   Frame=5   AutoSelect=N.A.   AnalSect="Profili a C"   MatProp=Default
   Frame=6   AutoSelect=N.A.   AnalSect="Profili a C"   MatProp=Default
   Frame=7   AutoSelect=N.A.   AnalSect="Profili a C"   MatProp=Default
   Frame=9   AutoSelect=N.A.   AnalSect="Profili a C"   MatProp=Default
   Frame=10   AutoSelect=N.A.   AnalSect="Profili a C"   MatProp=Default
   Frame=11   AutoSelect=N.A.   AnalSect="Profili a C"   MatProp=Default
   Frame=13   AutoSelect=N.A.   AnalSect="Profili a C"   MatProp=Default
   Frame=14   AutoSelect=N.A.   AnalSect="Profili a C"   MatProp=Default
   Frame=15   AutoSelect=N.A.   AnalSect="Profili a C"   MatProp=Default
   Frame=17   AutoSelect=N.A.   AnalSect="Profili a C"   MatProp=Default
   Frame=18   AutoSelect=N.A.   AnalSect="Profili a C"   MatProp=Default
   Frame=19   AutoSelect=N.A.   AnalSect="Profili a C"   MatProp=Default
   Frame=21   AutoSelect=N.A.   AnalSect="Profili a C"   MatProp=Default
   Frame=22   AutoSelect=N.A.   AnalSect="Profili a C"   MatProp=Default
   Frame=23   AutoSelect=N.A.   AnalSect="Profili a C"   MatProp=Default
   Frame=100   AutoSelect=N.A.   AnalSect="Profili a C"   MatProp=Default
# ... 32 like lines cut
 
TABLE:  "FRAME SECTION PROPERTIES 01 - GENERAL"
   SectionName="Profili a C"   Material=MAT   Shape=Channel   t3=7.8740157480315   t2=2.95275590551181   tf=0.452755905511811   tw=0.334645669291339   Area=5.00573501147002   TorsConst=0.249464791072229   I33=46.2967617046741 _
        I22=4.09890854098038   AS2=2.63500527001054   AS3=2.6737553475107   S33=11.7593774729872   S22=1.96475708068834   Z33=13.9839189619324   Z22=3.54209498342717   R33=3.04117477471097   R22=0.904899162325314   Color=White   FromFile=No _
        AMod=1   A2Mod=1   A3Mod=1   JMod=1   I2Mod=1   I3Mod=1   MMod=1   WMod=1   Notes="Added 06/03/2015 21:16:42"
 
TABLE:  "FUNCTION - PLOT FUNCTIONS"
   PlotFunc="Input Energy"   Type=Energy   Component=Input   Mode=All
 
TABLE:  "FUNCTION - POWER SPECTRAL DENSITY - USER"
   Name=UNIFPSD   Frequency=0   Value=1
   Name=UNIFPSD   Frequency=1   Value=1
 
TABLE:  "FUNCTION - RESPONSE SPECTRUM - USER"
   Name=UNIFRS   Period=0   Accel=1   FuncDamp=0.05
   Name=UNIFRS   Period=1   Accel=1
 
TABLE:  "FUNCTION - STEADY STATE - USER"
   Name=UNIFSS   Frequency=0   Value=1
   Name=UNIFSS   Frequency=1   Value=1
 
TABLE:  "FUNCTION - TIME HISTORY - USER"
   Name=RAMPTH   Time=0   Value=0
   Name=RAMPTH   Time=1   Value=1
   Name=RAMPTH   Time=4   Value=1
   Name=UNIFTH   Time=0   Value=1
   Name=UNIFTH   Time=1   Value=1
 
TABLE:  "GRID LINES"
   CoordSys=GLOBAL   AxisDir=X   GridID=A   XRYZCoord=0   LineType=Primary   LineColor=Gray8Dark   Visible=Yes   BubbleLoc=End   AllVisible=Yes   BubbleSize=60
   CoordSys=GLOBAL   AxisDir=X   GridID=B   XRYZCoord=76.7716535433071   LineType=Primary   LineColor=Gray8Dark   Visible=Yes   BubbleLoc=End
   CoordSys=GLOBAL   AxisDir=Y   GridID=1   XRYZCoord=0   LineType=Primary   LineColor=Gray8Dark   Visible=Yes   BubbleLoc=Start
   CoordSys=GLOBAL   AxisDir=Y   GridID=2   XRYZCoord=14.7637795275591   LineType=Primary   LineColor=Gray8Dark   Visible=Yes   BubbleLoc=Start
   CoordSys=GLOBAL   AxisDir=Y   GridID=3   XRYZCoord=54.1338582677165   LineType=Primary   LineColor=Gray8Dark   Visible=Yes   BubbleLoc=Start
   CoordSys=GLOBAL   AxisDir=Y   GridID=4   XRYZCoord=68.8976377952756   LineType=Primary   LineColor=Gray8Dark   Visible=Yes   BubbleLoc=Start
   CoordSys=GLOBAL   AxisDir=Z   GridID=Z1   XRYZCoord=0   LineType=Primary   LineColor=Gray8Dark   Visible=Yes   BubbleLoc=End
   CoordSys=GLOBAL   AxisDir=Z   GridID=Z2   XRYZCoord=118.110236220472   LineType=Primary   LineColor=Gray8Dark   Visible=Yes   BubbleLoc=End
   CoordSys=GLOBAL   AxisDir=Z   GridID=Z3   XRYZCoord=236.220472440945   LineType=Primary   LineColor=Gray8Dark   Visible=Yes   BubbleLoc=End
   CoordSys=GLOBAL   AxisDir=Z   GridID=Z4   XRYZCoord=354.330708661417   LineType=Primary   LineColor=Gray8Dark   Visible=Yes   BubbleLoc=End
   CoordSys=GLOBAL   AxisDir=Z   GridID=Z5   XRYZCoord=472.44094488189   LineType=Primary   LineColor=Gray8Dark   Visible=Yes   BubbleLoc=End
   CoordSys=GLOBAL   AxisDir=Z   GridID=Z6   XRYZCoord=590.551181102362   LineType=Primary   LineColor=Gray8Dark   Visible=Yes   BubbleLoc=End
   CoordSys=GLOBAL   AxisDir=Z   GridID=Z7   XRYZCoord=724.409448818898   LineType=Primary   LineColor=Gray8Dark   Visible=Yes   BubbleLoc=End
 
TABLE:  "GROUPS 1 - DEFINITIONS"
   GroupName=ALL   Selection=Yes   SectionCut=Yes   Steel=Yes   Concrete=Yes   Aluminum=Yes   ColdFormed=Yes   Stage=Yes   Bridge=Yes   AutoSeismic=No   AutoWind=No   SelDesSteel=No   SelDesAlum=No   SelDesCold=No   MassWeight=Yes   Color=Red
 
TABLE:  "JOINT COORDINATES"
   Joint=1   CoordSys=GLOBAL   CoordType=Cartesian   XorR=76.7716535433071   Y=0   Z=0   SpecialJt=No
   Joint=2   CoordSys=GLOBAL   CoordType=Cartesian   XorR=76.7716535433071   Y=0   Z=118.110236220472   SpecialJt=No
   Joint=3   CoordSys=GLOBAL   CoordType=Cartesian   XorR=0   Y=0   Z=118.110236220472   SpecialJt=No
   Joint=4   CoordSys=GLOBAL   CoordType=Cartesian   XorR=0   Y=0   Z=0   SpecialJt=No
   Joint=5   CoordSys=GLOBAL   CoordType=Cartesian   XorR=76.7716535433071   Y=0   Z=236.220472440945   SpecialJt=No
   Joint=6   CoordSys=GLOBAL   CoordType=Cartesian   XorR=0   Y=0   Z=236.220472440945   SpecialJt=No
   Joint=7   CoordSys=GLOBAL   CoordType=Cartesian   XorR=76.7716535433071   Y=0   Z=354.330708661417   SpecialJt=No
   Joint=8   CoordSys=GLOBAL   CoordType=Cartesian   XorR=0   Y=0   Z=354.330708661417   SpecialJt=No
   Joint=9   CoordSys=GLOBAL   CoordType=Cartesian   XorR=76.7716535433071   Y=0   Z=472.44094488189   SpecialJt=No
   Joint=10   CoordSys=GLOBAL   CoordType=Cartesian   XorR=0   Y=0   Z=472.44094488189   SpecialJt=No
   Joint=11   CoordSys=GLOBAL   CoordType=Cartesian   XorR=76.7716535433071   Y=0   Z=590.551181102362   SpecialJt=No
   Joint=12   CoordSys=GLOBAL   CoordType=Cartesian   XorR=0   Y=0   Z=590.551181102362   SpecialJt=Yes
   Joint=13   CoordSys=GLOBAL   CoordType=Cartesian   XorR=76.7716535433071   Y=0   Z=724.409448818898   SpecialJt=No
   Joint=14   CoordSys=GLOBAL   CoordType=Cartesian   XorR=0   Y=0   Z=724.409448818898   SpecialJt=No
   Joint=71   CoordSys=GLOBAL   CoordType=Cartesian   XorR=76.7716535433071   Y=68.8976377952756   Z=0   SpecialJt=No
   Joint=72   CoordSys=GLOBAL   CoordType=Cartesian   XorR=76.7716535433071   Y=68.8976377952756   Z=118.110236220472   SpecialJt=No
   Joint=73   CoordSys=GLOBAL   CoordType=Cartesian   XorR=0   Y=68.8976377952756   Z=118.110236220472   SpecialJt=No
   Joint=74   CoordSys=GLOBAL   CoordType=Cartesian   XorR=0   Y=68.8976377952756   Z=0   SpecialJt=No
   Joint=75   CoordSys=GLOBAL   CoordType=Cartesian   XorR=76.7716535433071   Y=68.8976377952756   Z=236.220472440945   SpecialJt=No
   Joint=76   CoordSys=GLOBAL   CoordType=Cartesian   XorR=0   Y=68.8976377952756   Z=236.220472440945   SpecialJt=No
   Joint=77   CoordSys=GLOBAL   CoordType=Cartesian   XorR=76.7716535433071   Y=68.8976377952756   Z=354.330708661417   SpecialJt=No
   Joint=78   CoordSys=GLOBAL   CoordType=Cartesian   XorR=0   Y=68.8976377952756   Z=354.330708661417   SpecialJt=No
   Joint=79   CoordSys=GLOBAL   CoordType=Cartesian   XorR=76.7716535433071   Y=68.8976377952756   Z=472.44094488189   SpecialJt=No
   Joint=80   CoordSys=GLOBAL   CoordType=Cartesian   XorR=0   Y=68.8976377952756   Z=472.44094488189   SpecialJt=No
   Joint=81   CoordSys=GLOBAL   CoordType=Cartesian   XorR=76.7716535433071   Y=68.8976377952756   Z=590.551181102362   SpecialJt=No
   Joint=82   CoordSys=GLOBAL   CoordType=Cartesian   XorR=0   Y=68.8976377952756   Z=590.551181102362   SpecialJt=No
   Joint=83   CoordSys=GLOBAL   CoordType=Cartesian   XorR=76.7716535433071   Y=68.8976377952756   Z=724.409448818898   SpecialJt=No
   Joint=84   CoordSys=GLOBAL   CoordType=Cartesian   XorR=0   Y=68.8976377952756   Z=724.409448818898   SpecialJt=No
   Joint=85   CoordSys=GLOBAL   CoordType=Cartesian   XorR=0   Y=14.7637795275591   Z=724.409448818898   SpecialJt=Yes
   Joint=86   CoordSys=GLOBAL   CoordType=Cartesian   XorR=0   Y=54.1338582677165   Z=724.409448818898   SpecialJt=Yes
   Joint=87   CoordSys=GLOBAL   CoordType=Cartesian   XorR=0   Y=14.7637795275591   Z=590.551181102362   SpecialJt=Yes
   Joint=88   CoordSys=GLOBAL   CoordType=Cartesian   XorR=0   Y=54.1338582677165   Z=590.551181102362   SpecialJt=Yes
 
TABLE:  "JOINT LOADS - FORCE"
   Joint=2   LoadPat=Vento   CoordSys=GLOBAL   F1=-0.674426770966018   F2=0.494579632041746   F3=0   M1=0   M2=0   M3=0
   Joint=3   LoadPat=Vento   CoordSys=GLOBAL   F1=0   F2=0.494579632041746   F3=0   M1=0   M2=0   M3=0
   Joint=5   LoadPat=Vento   CoordSys=GLOBAL   F1=-0.674426770966018   F2=0.494579632041746   F3=0   M1=0   M2=0   M3=0
   Joint=6   LoadPat=Vento   CoordSys=GLOBAL   F1=0   F2=0.494579632041746   F3=0   M1=0   M2=0   M3=0
   Joint=7   LoadPat=Vento   CoordSys=GLOBAL   F1=-0.674426770966018   F2=0.494579632041746   F3=0   M1=0   M2=0   M3=0
   Joint=8   LoadPat=Vento   CoordSys=GLOBAL   F1=0   F2=0.494579632041746   F3=0   M1=0   M2=0   M3=0
   Joint=9   LoadPat=Vento   CoordSys=GLOBAL   F1=-0.719388555697085   F2=0.539541416772814   F3=0   M1=0   M2=0   M3=0
   Joint=10   LoadPat=Vento   CoordSys=GLOBAL   F1=0   F2=0.539541416772814   F3=0   M1=0   M2=0   M3=0
   Joint=11   LoadPat=Vento   CoordSys=GLOBAL   F1=-0.786831232793687   F2=0.584503201503882   F3=0   M1=0   M2=0   M3=0
   Joint=12   LoadPat=Vento   CoordSys=GLOBAL   F1=0   F2=0.584503201503882   F3=0   M1=0   M2=0   M3=0
   Joint=13   LoadPat=Vento   CoordSys=GLOBAL   F1=-0.404656062579611   F2=0.314732493117475   F3=0   M1=0   M2=0   M3=0
   Joint=14   LoadPat=Vento   CoordSys=GLOBAL   F1=0   F2=0.314732493117475   F3=0   M1=0   M2=0   M3=0
   Joint=72   LoadPat=Vento   CoordSys=GLOBAL   F1=-0.674426770966018   F2=0   F3=0   M1=0   M2=0   M3=0
   Joint=75   LoadPat=Vento   CoordSys=GLOBAL   F1=-0.674426770966018   F2=0   F3=0   M1=0   M2=0   M3=0
   Joint=77   LoadPat=Vento   CoordSys=GLOBAL   F1=-0.674426770966018   F2=0   F3=0   M1=0   M2=0   M3=0
   Joint=79   LoadPat=Vento   CoordSys=GLOBAL   F1=-0.719388555697085   F2=0   F3=0   M1=0   M2=0   M3=0
   Joint=81   LoadPat=Vento   CoordSys=GLOBAL   F1=-0.786831232793687   F2=0   F3=0   M1=0   M2=0   M3=0
   Joint=83   LoadPat=Vento   CoordSys=GLOBAL   F1=-0.404656062579611   F2=0   F3=0   M1=0   M2=0   M3=0
   Joint=85   LoadPat="S- puntone"   CoordSys=GLOBAL   F1=-0.51706052440728   F2=2.04576120526359   F3=0   M1=0   M2=0   M3=0
   Joint=86   LoadPat="S- puntone"   CoordSys=GLOBAL   F1=-0.51706052440728   F2=-2.04576120526359   F3=0   M1=0   M2=0   M3=0
   Joint=87   LoadPat="S- puntone"   CoordSys=GLOBAL   F1=-0.51706052440728   F2=2.04576120526359   F3=0   M1=0   M2=0   M3=0
   Joint=88   LoadPat="S- puntone"   CoordSys=GLOBAL   F1=-0.51706052440728   F2=-2.04576120526359   F3=0   M1=0   M2=0   M3=0
 
TABLE:  "JOINT PATTERN DEFINITIONS"
   Pattern=Default
 
TABLE:  "JOINT RESTRAINT ASSIGNMENTS"
   Joint=1   U1=Yes   U2=Yes   U3=Yes   R1=Yes   R2=Yes   R3=Yes
   Joint=4   U1=Yes   U2=Yes   U3=Yes   R1=Yes   R2=Yes   R3=Yes
   Joint=71   U1=Yes   U2=Yes   U3=Yes   R1=Yes   R2=Yes   R3=Yes
   Joint=74   U1=Yes   U2=Yes   U3=Yes   R1=Yes   R2=Yes   R3=Yes
 
TABLE:  "LOAD CASE DEFINITIONS"
   Case=DEAD   Type=LinStatic   InitialCond=Zero   DesTypeOpt="Prog Det"   DesignType=DEAD   AutoType=None   RunCase=Yes
   Case=MODAL   Type=LinModal   InitialCond=Zero   DesTypeOpt="Prog Det"   DesignType=OTHER   AutoType=None   RunCase=Yes
   Case=Vetro   Type=LinStatic   InitialCond=Zero   DesTypeOpt="Prog Det"   DesignType=OTHER   AutoType=None   RunCase=Yes
   Case="S- puntone"   Type=LinStatic   InitialCond=Zero   DesTypeOpt="Prog Det"   DesignType=OTHER   AutoType=None   RunCase=Yes
   Case=Vento   Type=LinStatic   InitialCond=Zero   DesTypeOpt="Prog Det"   DesignType=OTHER   AutoType=None   RunCase=Yes
   Case=Q_neve   Type=LinStatic   InitialCond=Zero   DesTypeOpt="Prog Det"   DesignType=OTHER   AutoType=None   RunCase=Yes
 
TABLE:  "LOAD PATTERN DEFINITIONS"
   LoadPat=DEAD   DesignType=DEAD   SelfWtMult=1
   LoadPat=Vetro   DesignType=OTHER   SelfWtMult=0
   LoadPat="S- puntone"   DesignType=OTHER   SelfWtMult=0
   LoadPat=Vento   DesignType=OTHER   SelfWtMult=0
   LoadPat=Q_neve   DesignType=OTHER   SelfWtMult=0
 
TABLE:  "MASSES 1 - MASS SOURCE"
   MassFrom=Elements
 
TABLE:  "MATERIAL PROPERTIES 01 - GENERAL"
   Material=4000Psi   Type=Concrete   SymType=Isotropic   TempDepend=No   Color=Green   Notes="Normalweight f'c = 4 ksi added 06/03/2015 21:12:43"
   Material=A992Fy50   Type=Steel   SymType=Isotropic   TempDepend=No   Color=Blue   Notes="ASTM A992 Fy=50 ksi added 06/03/2015 21:12:43"
   Material=MAT   Type=Steel   SymType=Isotropic   TempDepend=No   Color=Blue   Notes="ASTM A36 added 06/03/2015 21:16:20"
 
TABLE:  "MATERIAL PROPERTIES 02 - BASIC MECHANICAL PROPERTIES"
   Material=4000Psi   UnitWeight=8.68055555555556E-05   UnitMass=2.24833252148744E-07   E1=3604.99653259195   G12=1502.08188857998   U12=0.2   A1=0.0000055
   Material=A992Fy50   UnitWeight=2.83564814814815E-04   UnitMass=7.34455290352564E-07   E1=29000   G12=11153.8461538462   U12=0.3   A1=0.0000065
   Material=MAT   UnitWeight=2.83564814814815E-04   UnitMass=7.34455290352564E-07   E1=29000   G12=11153.8461538462   U12=0.3   A1=0.0000065
 
TABLE:  "MATERIAL PROPERTIES 03A - STEEL DATA"
   Material=A992Fy50   Fy=50   Fu=65   EffFy=55   EffFu=71.5   SSCurveOpt=Simple   SSHysType=Kinematic   SHard=0.015   SMax=0.11   SRup=0.17   FinalSlope=-0.1
   Material=MAT   Fy=36   Fu=58   EffFy=54   EffFu=63.8   SSCurveOpt=Simple   SSHysType=Kinematic   SHard=0.02   SMax=0.14   SRup=0.2   FinalSlope=-0.1
 
TABLE:  "MATERIAL PROPERTIES 03B - CONCRETE DATA"
   Material=4000Psi   Fc=4   LtWtConc=No   SSCurveOpt=Mander   SSHysType=Takeda   SFc=2.21914221766202E-03   SCap=0.005   FinalSlope=-0.1   FAngle=0   DAngle=0
 
TABLE:  "MATERIAL PROPERTIES 06 - DAMPING PARAMETERS"
   Material=4000Psi   ModalRatio=0   VisMass=0   VisStiff=0   HysMass=0   HysStiff=0
   Material=A992Fy50   ModalRatio=0   VisMass=0   VisStiff=0   HysMass=0   HysStiff=0
   Material=MAT   ModalRatio=0   VisMass=0   VisStiff=0   HysMass=0   HysStiff=0
 
TABLE:  "OPTIONS - COLORS - DISPLAY"
   DeviceType=Screen   Points=Yellow   LinesFrame=Yellow   LinesFrmExt=Yellow   LinesCable=Green   LinesTendon=Green   SpringLinks=Green   Restraints=Green   Releases=Green   Axes=Cyan   Text=Green   ShadowLines=Gray8Dark _
        GuideLines=Gray8Dark   Highlight=Red   Selection=White   AreaFillBot=Red   AreaFillTop=16744703   AreaFillSd=Red   AreaEdge=DarkRed   SolidF1=Red   SolidF2=Blue   SolidF3=Green   SolidF4=Yellow   SolidF5=White   SolidF6=Cyan _
        SolidEdge=DarkRed   Floor=Gray4   Background=White   BGLowLeft=White   BGLowRight=White   BGUpRight=White   Darkness=0.5
   DeviceType=Printer   Points=Gray8Dark   LinesFrame=Black   LinesFrmExt=Gray4   LinesCable=Black   LinesTendon=Black   SpringLinks=Gray8Dark   Restraints=Gray8Dark   Releases=Gray4   Axes=Black   Text=Black   ShadowLines=Gray4 _
        GuideLines=Gray4   Highlight=Black   Selection=Black   AreaFillBot=Gray4   AreaFillTop=Gray8Dark   AreaFillSd=Gray4   AreaEdge=Black   SolidF1=Gray1Light   SolidF2=Gray2   SolidF3=Gray3   SolidF4=Gray4   SolidF5=Gray5 _
        SolidF6=Gray6   SolidEdge=Black   Floor=Gray4   Background=White   BGLowLeft=White   BGLowRight=White   BGUpRight=White   Darkness=0.5
   DeviceType="Color Printer"   Points=Black   LinesFrame=7303023   LinesFrmExt=White   LinesCable=Green   LinesTendon=Green   SpringLinks=Green   Restraints=9408399   Releases=Green   Axes=Cyan   Text=Black   ShadowLines=Gray8Dark _
        GuideLines=10461087   Highlight=Red   Selection=10504778   AreaFillBot=16634568   AreaFillTop=14277119   AreaFillSd=16634568   AreaEdge=7303023   SolidF1=10122991   SolidF2=16756912   SolidF3=11599795   SolidF4=12713983 _
        SolidF5=White   SolidF6=16777128   SolidEdge=7303023   Floor=13619151   Background=White   BGLowLeft=White   BGLowRight=14671839   BGUpRight=White   Darkness=0.5
 
TABLE:  "OPTIONS - COLORS - OUTPUT"
   DeviceType=Screen   Contour1=13107400   Contour2=6553828   Contour3=Red   Contour4=16639   Contour5=Orange   Contour6=43775   Contour7=54527   Contour8=Yellow   Contour9=65408   Contour10=Green   Contour11=8453888   Contour12=Cyan _
        Contour13=16755200   Contour14=16733440   Contour15=Blue   Transpare=0.5   Ratio1=Cyan   Ratio2=Green   Ratio3=Yellow   Ratio4=Orange   Ratio5=Red   RatioNotD=Gray4   RatioNotC=Red   RatioVal1=0.5   RatioVal2=0.7   RatioVal3=0.9 _
        RatioVal4=1   DFillPos=Yellow   DFillNeg=Red   DFillRPos=Blue   DFillRNeg=Cyan
   DeviceType=Printer   Contour1=Black   Contour2=3158064   Contour3=4210752   Contour4=5263440   Contour5=6316128   Contour6=7368816   Contour7=Gray8Dark   Contour8=Gray7   Contour9=Gray6   Contour10=Gray5   Contour11=Gray4 _
        Contour12=Gray3   Contour13=Gray2   Contour14=Gray1Light   Contour15=White   Transpare=0   Ratio1=Gray2   Ratio2=Gray4   Ratio3=Gray8Dark   Ratio4=4210752   Ratio5=Black   RatioNotD=Gray4   RatioNotC=Black   RatioVal1=0.5 _
        RatioVal2=0.7   RatioVal3=0.9   RatioVal4=1   DFillPos=Gray8Dark   DFillNeg=Gray8Dark   DFillRPos=4210752   DFillRNeg=4210752
   DeviceType="Color Printer"   Contour1=13107400   Contour2=6553828   Contour3=Red   Contour4=16639   Contour5=Orange   Contour6=43775   Contour7=54527   Contour8=Yellow   Contour9=65408   Contour10=Green   Contour11=8453888 _
        Contour12=Cyan   Contour13=16755200   Contour14=16733440   Contour15=Blue   Transpare=0.5   Ratio1=Cyan   Ratio2=Green   Ratio3=Yellow   Ratio4=Orange   Ratio5=Red   RatioNotD=Gray4   RatioNotC=Red   RatioVal1=0.5   RatioVal2=0.7 _
        RatioVal3=0.9   RatioVal4=1   DFillPos=Red   DFillNeg=Red   DFillRPos=Blue   DFillRNeg=Blue
 
TABLE:  "PREFERENCES - ALUMINUM DESIGN - AA-ASD 2000"
   THDesign=Envelopes   FrameType="Moment Frame"   SRatioLimit=1   MaxIter=1   LatFact=1.33333333333333   UseLatFact=No   Bridge=No
 
TABLE:  "PREFERENCES - COLD FORMED DESIGN - AISI-ASD96"
   THDesign=Envelopes   FrameType="Braced Frame"   SRatioLimit=1   MaxIter=1   OmegaBS=1.67   OmegaBUS=1.67   OmegaBLTB=1.67   OmegaVS=1.67   OmegaVNS=1.5   OmegaT=1.67   OmegaC=1.8
 
TABLE:  "PREFERENCES - CONCRETE DESIGN - ACI 318-05/IBC2003"
   THDesign=Envelopes   NumCurves=24   NumPoints=11   MinEccen=No   PatLLF=0.75   UFLimit=0.95   SeisCat=D   PhiT=0.9   PhiCTied=0.65   PhiCSpiral=0.7   PhiV=0.75   PhiVSeismic=0.6   PhiVJoint=0.85
 
TABLE:  "PREFERENCES - DIMENSIONAL"
   MergeTol=0.1   FineGrid=12   Nudge=12   SelectTol=3   SnapTol=12   SLineThick=1   PLineThick=4   MaxFont=8   MinFont=3   AutoZoom=10   ShrinkFact=70   TextFileLen=240
 
TABLE:  "PREFERENCES - STEEL DESIGN - AISC-LRFD93"
   THDesign=Envelopes   FrameType="Moment Frame"   PatLLF=0.75   SRatioLimit=0.95   MaxIter=1   PhiB=0.9   PhiC=0.85   PhiT=0.9   PhiV=0.9   PhiCA=0.9   CheckDefl=Yes   DLRat=120   SDLAndLLRat=120   LLRat=360   TotalRat=240   NetRat=240
 
TABLE:  "PROGRAM CONTROL"
   ProgramName=SAP2000   Version=14.0.0   CurrUnits="Kip, in, F"   SteelCode=AISC-LRFD93   ConcCode="ACI 318-05/IBC2003"   AlumCode="AA-ASD 2000"   ColdCode=AISI-ASD96   BridgeCode="AASHTO LRFD 2007"   RegenHinge=Yes
 
TABLE:  "PROJECT INFORMATION"
   Item="Company Name"
   Item="Client Name"
   Item="Project Name"
   Item="Project Number"
   Item="Model Name"
   Item="Model Description"
   Item="Revision Number"
   Item="Frame Type"
   Item=Engineer
   Item=Checker
   Item=Supervisor
   Item="Issue Code"
   Item="Design Code"
 
TABLE:  "REBAR SIZES"
   RebarID=#2   Area=0.05   Diameter=0.25
   RebarID=#3   Area=0.109999999403954   Diameter=0.375
   RebarID=#4   Area=0.200000002980232   Diameter=0.5
   RebarID=#5   Area=0.310000002384186   Diameter=0.625
   RebarID=#6   Area=0.439999997615814   Diameter=0.75
   RebarID=#7   Area=0.600000023841858   Diameter=0.875
   RebarID=#8   Area=0.790000021457672   Diameter=1
   RebarID=#9   Area=1   Diameter=1.12800002098083
   RebarID=#10   Area=1.26999998092651   Diameter=1.26999998092651
   RebarID=#11   Area=1.55999994277954   Diameter=1.4099999666214
   RebarID=#14   Area=2.25   Diameter=1.692999958992
   RebarID=#18   Area=4   Diameter=2.25699996948242
   RebarID=10M   Area=0.155000316452672   Diameter=0.444881903954482
   RebarID=15M   Area=0.310000632905345   Diameter=0.629921269302988
   RebarID=20M   Area=0.465000949358017   Diameter=0.767716546963017
   RebarID=25M   Area=0.775001582263362   Diameter=0.992126029189193
   RebarID=30M   Area=1.08500221516871   Diameter=1.17716535699147
   RebarID=35M   Area=1.55000316452672   Diameter=1.40551186216928
   RebarID=45M   Area=2.32500474679009   Diameter=1.72047249682077
   RebarID=55M   Area=3.87500791131681   Diameter=2.22047253436701
   RebarID=6d   Area=4.38650883735477E-02   Diameter=0.23622047598862
   RebarID=8d   Area=7.79651579931357E-02   Diameter=0.314960634651494
   RebarID=10d   Area=0.121675248415348   Diameter=0.393700793314367
   RebarID=12d   Area=0.17515035759152   Diameter=0.472440951977241
   RebarID=14d   Area=0.238700487337116   Diameter=0.551181110640114
   RebarID=16d   Area=0.311550636069872   Diameter=0.629921269302988
   RebarID=20d   Area=0.486700993661391   Diameter=0.787401586628735
   RebarID=25d   Area=0.761051553782622   Diameter=0.984251983285919
   RebarID=26d   Area=0.823051680363691   Diameter=1.02362206261736
   RebarID=28d   Area=0.954801949348462   Diameter=1.10236222128023
   RebarID=N12   Area=0.17515035759152   Diameter=0.472440951977241
   RebarID=N16   Area=0.311550636069872   Diameter=0.629921269302988
   RebarID=N20   Area=0.486700993661391   Diameter=0.787401586628735
   RebarID=N24   Area=0.700601430366079   Diameter=0.944881903954482
   RebarID=N28   Area=0.954801949348462   Diameter=1.10236222128023
   RebarID=N32   Area=1.24620254427949   Diameter=1.25984253860598
   RebarID=N36   Area=1.58100322781726   Diameter=1.41732285593172
 
END TABLE DATA
