File C:\Users\Francesco\Desktop\Castelletto metallico\fondazione castelletto.$2k was saved on 3/17/15 at 22:47:34
 
TABLE:  "ACTIVE DEGREES OF FREEDOM"
   UX=Yes   UY=Yes   UZ=Yes   RX=Yes   RY=Yes   RZ=Yes
 
TABLE:  "ANALYSIS OPTIONS"
   Solver=Advanced   SolverProc=Auto   Force32Bit=No   StiffCase=None   GeomMod=No
 
TABLE:  "AREA LOADS - SURFACE PRESSURE"
   Area=40501   LoadPat=Centralina   Face=Top   Pressure=5   JtPattern=None
   Area=40501   LoadPat=Afflusso   Face=Top   Pressure=8.5   JtPattern=None
   Area=40501   LoadPat="Carico dinamico"   Face=Top   Pressure=70   JtPattern=None
   Area=40502   LoadPat=Centralina   Face=Top   Pressure=5   JtPattern=None
   Area=40502   LoadPat=Afflusso   Face=Top   Pressure=8.5   JtPattern=None
   Area=40502   LoadPat="Carico dinamico"   Face=Top   Pressure=70   JtPattern=None
   Area=40503   LoadPat=Centralina   Face=Top   Pressure=5   JtPattern=None
   Area=40503   LoadPat=Afflusso   Face=Top   Pressure=8.5   JtPattern=None
   Area=40503   LoadPat="Carico dinamico"   Face=Top   Pressure=70   JtPattern=None
   Area=40504   LoadPat=Centralina   Face=Top   Pressure=5   JtPattern=None
   Area=40504   LoadPat=Afflusso   Face=Top   Pressure=8.5   JtPattern=None
   Area=40504   LoadPat="Carico dinamico"   Face=Top   Pressure=70   JtPattern=None
   Area=40505   LoadPat=Centralina   Face=Top   Pressure=5   JtPattern=None
   Area=40505   LoadPat=Afflusso   Face=Top   Pressure=8.5   JtPattern=None
   Area=40505   LoadPat="Carico dinamico"   Face=Top   Pressure=70   JtPattern=None
   Area=40506   LoadPat=Centralina   Face=Top   Pressure=5   JtPattern=None
   Area=40506   LoadPat=Afflusso   Face=Top   Pressure=8.5   JtPattern=None
   Area=40506   LoadPat="Carico dinamico"   Face=Top   Pressure=70   JtPattern=None
   Area=40507   LoadPat=Centralina   Face=Top   Pressure=5   JtPattern=None
   Area=40507   LoadPat=Afflusso   Face=Top   Pressure=8.5   JtPattern=None
   Area=40507   LoadPat="Carico dinamico"   Face=Top   Pressure=70   JtPattern=None
   Area=40508   LoadPat=Centralina   Face=Top   Pressure=5   JtPattern=None
   Area=40508   LoadPat=Afflusso   Face=Top   Pressure=8.5   JtPattern=None
   Area=40508   LoadPat="Carico dinamico"   Face=Top   Pressure=70   JtPattern=None
   Area=40509   LoadPat=Centralina   Face=Top   Pressure=5   JtPattern=None
   Area=40509   LoadPat=Afflusso   Face=Top   Pressure=8.5   JtPattern=None
   Area=40509   LoadPat="Carico dinamico"   Face=Top   Pressure=70   JtPattern=None
   Area=40510   LoadPat=Centralina   Face=Top   Pressure=5   JtPattern=None
   Area=40510   LoadPat=Afflusso   Face=Top   Pressure=8.5   JtPattern=None
   Area=40510   LoadPat="Carico dinamico"   Face=Top   Pressure=70   JtPattern=None
   Area=40511   LoadPat=Centralina   Face=Top   Pressure=5   JtPattern=None
   Area=40511   LoadPat=Afflusso   Face=Top   Pressure=8.5   JtPattern=None
   Area=40511   LoadPat="Carico dinamico"   Face=Top   Pressure=70   JtPattern=None
   Area=40512   LoadPat=Centralina   Face=Top   Pressure=5   JtPattern=None
   Area=40512   LoadPat=Afflusso   Face=Top   Pressure=8.5   JtPattern=None
   Area=40512   LoadPat="Carico dinamico"   Face=Top   Pressure=70   JtPattern=None
   Area=40513   LoadPat=Centralina   Face=Top   Pressure=5   JtPattern=None
   Area=40513   LoadPat=Afflusso   Face=Top   Pressure=8.5   JtPattern=None
   Area=40513   LoadPat="Carico dinamico"   Face=Top   Pressure=70   JtPattern=None
   Area=40514   LoadPat=Centralina   Face=Top   Pressure=5   JtPattern=None
   Area=40514   LoadPat=Afflusso   Face=Top   Pressure=8.5   JtPattern=None
   Area=40514   LoadPat="Carico dinamico"   Face=Top   Pressure=70   JtPattern=None
   Area=40515   LoadPat=Centralina   Face=Top   Pressure=5   JtPattern=None
   Area=40515   LoadPat=Afflusso   Face=Top   Pressure=8.5   JtPattern=None
   Area=40515   LoadPat="Carico dinamico"   Face=Top   Pressure=70   JtPattern=None
   Area=40516   LoadPat=Centralina   Face=Top   Pressure=5   JtPattern=None
   Area=40516   LoadPat=Afflusso   Face=Top   Pressure=8.5   JtPattern=None
   Area=40516   LoadPat="Carico dinamico"   Face=Top   Pressure=70   JtPattern=None
   Area=40517   LoadPat=Centralina   Face=Top   Pressure=5   JtPattern=None
   Area=40517   LoadPat=Afflusso   Face=Top   Pressure=8.5   JtPattern=None
   Area=40517   LoadPat="Carico dinamico"   Face=Top   Pressure=70   JtPattern=None
   Area=40518   LoadPat=Centralina   Face=Top   Pressure=5   JtPattern=None
   Area=40518   LoadPat=Afflusso   Face=Top   Pressure=8.5   JtPattern=None
   Area=40518   LoadPat="Carico dinamico"   Face=Top   Pressure=70   JtPattern=None
   Area=40519   LoadPat=Centralina   Face=Top   Pressure=5   JtPattern=None
   Area=40519   LoadPat=Afflusso   Face=Top   Pressure=8.5   JtPattern=None
   Area=40519   LoadPat="Carico dinamico"   Face=Top   Pressure=70   JtPattern=None
   Area=40520   LoadPat=Centralina   Face=Top   Pressure=5   JtPattern=None
   Area=40520   LoadPat=Afflusso   Face=Top   Pressure=8.5   JtPattern=None
   Area=40520   LoadPat="Carico dinamico"   Face=Top   Pressure=70   JtPattern=None
# ... 1140 like lines cut
 
TABLE:  "AREA SECTION ASSIGNMENTS"
   Area=106   Section=Colonne   MatProp=Default
   Area=107   Section=Colonne   MatProp=Default
   Area=108   Section=Colonne   MatProp=Default
   Area=109   Section=Colonne   MatProp=Default
   Area=110   Section=Colonne   MatProp=Default
   Area=111   Section=Colonne   MatProp=Default
   Area=112   Section=Colonne   MatProp=Default
   Area=113   Section=Colonne   MatProp=Default
   Area=114   Section=Colonne   MatProp=Default
   Area=115   Section=Colonne   MatProp=Default
   Area=116   Section=Colonne   MatProp=Default
   Area=117   Section=Colonne   MatProp=Default
   Area=118   Section=Colonne   MatProp=Default
   Area=119   Section=Colonne   MatProp=Default
   Area=120   Section=Colonne   MatProp=Default
   Area=121   Section=Colonne   MatProp=Default
   Area=122   Section=Colonne   MatProp=Default
   Area=123   Section=Colonne   MatProp=Default
   Area=124   Section=Colonne   MatProp=Default
   Area=125   Section=Colonne   MatProp=Default
# ... 380 like lines cut
   Area=40501   Section=Base   MatProp=Default
   Area=40502   Section=Base   MatProp=Default
   Area=40503   Section=Base   MatProp=Default
   Area=40504   Section=Base   MatProp=Default
   Area=40505   Section=Base   MatProp=Default
   Area=40506   Section=Base   MatProp=Default
   Area=40507   Section=Base   MatProp=Default
   Area=40508   Section=Base   MatProp=Default
   Area=40509   Section=Base   MatProp=Default
   Area=40510   Section=Base   MatProp=Default
   Area=40511   Section=Base   MatProp=Default
   Area=40512   Section=Base   MatProp=Default
   Area=40513   Section=Base   MatProp=Default
   Area=40514   Section=Base   MatProp=Default
   Area=40515   Section=Base   MatProp=Default
   Area=40516   Section=Base   MatProp=Default
   Area=40517   Section=Base   MatProp=Default
   Area=40518   Section=Base   MatProp=Default
   Area=40519   Section=Base   MatProp=Default
   Area=40520   Section=Base   MatProp=Default
# ... 380 like lines cut
 
TABLE:  "AREA SECTION PROPERTIES"
   Section=Base   Material=CLS   MatAngle=0   AreaType=Shell   Type=Shell-Thick   DrillDOF=Yes   Thickness=0.3   BendThick=0.3   Color=11513775   F11Mod=1   F22Mod=1   F12Mod=1   M11Mod=1   M22Mod=1   M12Mod=1   V13Mod=1   V23Mod=1   MMod=1 _
        WMod=1   Notes="Added 13/03/2015 20:52:33"
   Section=Colonne   Material=CLS   MatAngle=0   AreaType=Shell   Type=Shell-Thick   DrillDOF=Yes   Thickness=0.2   BendThick=0.2   Color=Orange   F11Mod=1   F22Mod=1   F12Mod=1   M11Mod=1   M22Mod=1   M12Mod=1   V13Mod=1   V23Mod=1 _
        MMod=1   WMod=1   Notes="Added 13/03/2015 20:58:09"
 
TABLE:  "AREA SECTION PROPERTY DESIGN PARAMETERS"
   Section=Base   RebarMat=None   RebarOpt=Default
   Section=Colonne   RebarMat=None   RebarOpt="One Layer"   CoverTop1=0   CoverTop2=0
 
TABLE:  "AUTO WAVE 3 - WAVE CHARACTERISTICS - GENERAL"
   WaveChar=Default   WaveType="From Theory"   KinFactor=1   SWaterDepth=45   WaveHeight=18   WavePeriod=12   WaveTheory=Linear
 
TABLE:  "BRIDGE DESIGN PREFERENCES - AASHTOLRFD07"
   HingeOpt="Auto: AASHTO/Caltrans Hinge"
 
TABLE:  "BRIDGE PREFERENCES"
   NorthAngle=90   MaxDiscCurv=1
 
TABLE:  "CASE - MODAL 1 - GENERAL"
   Case=MODAL   ModeType=Eigen   MaxNumModes=12   MinNumModes=1   EigenShift=0   EigenCutoff=0   EigenTol=0.000000001   AutoShift=Yes
 
TABLE:  "CASE - STATIC 1 - LOAD ASSIGNMENTS"
   Case=DEAD   LoadType="Load pattern"   LoadName=DEAD   LoadSF=1
   Case="Carico centralina"   LoadType="Load pattern"   LoadName=Centralina   LoadSF=1
   Case="Sforzo assiale"   LoadType="Load pattern"   LoadName="Sforzo assiale"   LoadSF=1
   Case=Afflusso   LoadType="Load pattern"   LoadName=Afflusso   LoadSF=1
   Case="Carico dinamico"   LoadType="Load pattern"   LoadName="Carico dinamico"   LoadSF=1
   Case="Sforzo assiale1"   LoadType="Load pattern"   LoadName="Sforzo assiale"   LoadSF=1
   Case="Momento flettente"   LoadType="Load pattern"   LoadName="Momento flettente"   LoadSF=1
   Case=Taglio   LoadType="Load pattern"   LoadName=Taglio   LoadSF=1
 
TABLE:  "COMBINATION DEFINITIONS"
   ComboName=SLU   ComboType="Linear Add"   AutoDesign=No   CaseName=DEAD   ScaleFactor=1.3   SteelDesign=No   ConcDesign=No   AlumDesign=No   ColdDesign=No
   ComboName=SLU   CaseName="Carico centralina"   ScaleFactor=1.3
   ComboName=SLU   CaseName="Carico dinamico"   ScaleFactor=1.5
   ComboName=SLU   CaseName="Sforzo assiale"   ScaleFactor=1
 
TABLE:  "CONNECTIVITY - AREA"
   Area=106   Joint1=112   Joint2=145   Joint3=146   Joint4=147
   Area=107   Joint1=147   Joint2=146   Joint3=148   Joint4=149
   Area=108   Joint1=149   Joint2=148   Joint3=150   Joint4=151
   Area=109   Joint1=151   Joint2=150   Joint3=152   Joint4=153
   Area=110   Joint1=153   Joint2=152   Joint3=154   Joint4=155
   Area=111   Joint1=155   Joint2=154   Joint3=156   Joint4=157
   Area=112   Joint1=157   Joint2=156   Joint3=158   Joint4=159
   Area=113   Joint1=159   Joint2=158   Joint3=160   Joint4=161
   Area=114   Joint1=161   Joint2=160   Joint3=162   Joint4=163
   Area=115   Joint1=163   Joint2=162   Joint3=164   Joint4=115
   Area=116   Joint1=145   Joint2=165   Joint3=166   Joint4=146
   Area=117   Joint1=146   Joint2=166   Joint3=167   Joint4=148
   Area=118   Joint1=148   Joint2=167   Joint3=168   Joint4=150
   Area=119   Joint1=150   Joint2=168   Joint3=169   Joint4=152
   Area=120   Joint1=152   Joint2=169   Joint3=170   Joint4=154
   Area=121   Joint1=154   Joint2=170   Joint3=171   Joint4=156
   Area=122   Joint1=156   Joint2=171   Joint3=172   Joint4=158
   Area=123   Joint1=158   Joint2=172   Joint3=173   Joint4=160
   Area=124   Joint1=160   Joint2=173   Joint3=174   Joint4=162
   Area=125   Joint1=162   Joint2=174   Joint3=175   Joint4=164
# ... 780 like lines cut
 
TABLE:  "COORDINATE SYSTEMS"
   Name=GLOBAL   Type=Cartesian   X=0   Y=0   Z=0   AboutZ=0   AboutY=0   AboutX=0
 
TABLE:  "DATABASE DOCUMENTATION"
 
TABLE:  "DATABASE FORMAT TYPES"
   UnitsCurr=Yes   OverrideE=No
 
TABLE:  "FRAME SECTION PROPERTIES 01 - GENERAL"
   SectionName=FSEC1   Material=A992Fy50   Shape="I/Wide Flange"   t3=0.3048   t2=0.127   tf=0.009652   tw=0.00635   t2b=0.127   tfb=0.009652   Area=0.0042645076   TorsConst=9.65117678053953E-08   I33=6.5724174702235E-05 _
        I22=3.30125717301008E-06   AS2=0.00193548   AS3=2.04300666666667E-03   S33=4.3126098885981E-04   S22=5.19883019371667E-05   Z33=4.911874950424E-04   Z22=0.000080716532115   R33=0.124144683132414   R22=2.78230817990979E-02 _
        Color=Green   FromFile=No   AMod=1   A2Mod=1   A3Mod=1   JMod=1   I2Mod=1   I3Mod=1   MMod=1   WMod=1   Notes="Added 14/03/2015 13:14:39"
 
TABLE:  "FUNCTION - PLOT FUNCTIONS"
   PlotFunc="Input Energy"   Type=Energy   Component=Input   Mode=All
 
TABLE:  "FUNCTION - POWER SPECTRAL DENSITY - USER"
   Name=UNIFPSD   Frequency=0   Value=1
   Name=UNIFPSD   Frequency=1   Value=1
 
TABLE:  "FUNCTION - RESPONSE SPECTRUM - USER"
   Name=UNIFRS   Period=0   Accel=1   FuncDamp=0.05
   Name=UNIFRS   Period=1   Accel=1
 
TABLE:  "FUNCTION - STEADY STATE - USER"
   Name=UNIFSS   Frequency=0   Value=1
   Name=UNIFSS   Frequency=1   Value=1
 
TABLE:  "FUNCTION - TIME HISTORY - USER"
   Name=RAMPTH   Time=0   Value=0
   Name=RAMPTH   Time=1   Value=1
   Name=RAMPTH   Time=4   Value=1
   Name=UNIFTH   Time=0   Value=1
   Name=UNIFTH   Time=1   Value=1
 
TABLE:  "GRID LINES"
   CoordSys=GLOBAL   AxisDir=X   GridID=A   XRYZCoord=0   LineType=Primary   LineColor=Gray8Dark   Visible=Yes   BubbleLoc=End   AllVisible=Yes   BubbleSize=1.25
   CoordSys=GLOBAL   AxisDir=X   GridID=D   XRYZCoord=2.35   LineType=Primary   LineColor=Gray8Dark   Visible=Yes   BubbleLoc=End
   CoordSys=GLOBAL   AxisDir=Y   GridID=1   XRYZCoord=0   LineType=Primary   LineColor=Gray8Dark   Visible=Yes   BubbleLoc=Start
   CoordSys=GLOBAL   AxisDir=Y   GridID=4   XRYZCoord=2.15   LineType=Primary   LineColor=Gray8Dark   Visible=Yes   BubbleLoc=Start
   CoordSys=GLOBAL   AxisDir=Z   GridID=Z1   XRYZCoord=0   LineType=Primary   LineColor=Gray8Dark   Visible=Yes   BubbleLoc=End
   CoordSys=GLOBAL   AxisDir=Z   GridID=Z2   XRYZCoord=1.3   LineType=Primary   LineColor=Gray8Dark   Visible=Yes   BubbleLoc=End
 
TABLE:  "GROUPS 1 - DEFINITIONS"
   GroupName=ALL   Selection=Yes   SectionCut=Yes   Steel=Yes   Concrete=Yes   Aluminum=Yes   ColdFormed=Yes   Stage=Yes   Bridge=Yes   AutoSeismic=No   AutoWind=No   SelDesSteel=No   SelDesAlum=No   SelDesCold=No   MassWeight=Yes   Color=Red
 
TABLE:  "JOINT COORDINATES"
   Joint=4   CoordSys=GLOBAL   CoordType=Cartesian   XorR=2.24072853912933   Y=0.1   Z=1.3   SpecialJt=Yes
   Joint=5   CoordSys=GLOBAL   CoordType=Cartesian   XorR=0.235   Y=0   Z=0   SpecialJt=No
   Joint=6   CoordSys=GLOBAL   CoordType=Cartesian   XorR=0.235   Y=0.215   Z=0   SpecialJt=No
   Joint=7   CoordSys=GLOBAL   CoordType=Cartesian   XorR=0   Y=0.215   Z=0   SpecialJt=No
   Joint=8   CoordSys=GLOBAL   CoordType=Cartesian   XorR=0.235   Y=0.43   Z=0   SpecialJt=No
   Joint=9   CoordSys=GLOBAL   CoordType=Cartesian   XorR=0   Y=0.43   Z=0   SpecialJt=No
   Joint=10   CoordSys=GLOBAL   CoordType=Cartesian   XorR=0.235   Y=0.645   Z=0   SpecialJt=No
   Joint=11   CoordSys=GLOBAL   CoordType=Cartesian   XorR=0   Y=0.645   Z=0   SpecialJt=No
   Joint=12   CoordSys=GLOBAL   CoordType=Cartesian   XorR=0.235   Y=0.86   Z=0   SpecialJt=No
   Joint=13   CoordSys=GLOBAL   CoordType=Cartesian   XorR=0   Y=0.86   Z=0   SpecialJt=No
   Joint=14   CoordSys=GLOBAL   CoordType=Cartesian   XorR=0.235   Y=1.075   Z=0   SpecialJt=No
   Joint=15   CoordSys=GLOBAL   CoordType=Cartesian   XorR=0   Y=1.075   Z=0   SpecialJt=No
   Joint=16   CoordSys=GLOBAL   CoordType=Cartesian   XorR=0.235   Y=1.29   Z=0   SpecialJt=No
   Joint=17   CoordSys=GLOBAL   CoordType=Cartesian   XorR=0   Y=1.29   Z=0   SpecialJt=No
   Joint=18   CoordSys=GLOBAL   CoordType=Cartesian   XorR=0.235   Y=1.505   Z=0   SpecialJt=No
   Joint=19   CoordSys=GLOBAL   CoordType=Cartesian   XorR=0   Y=1.505   Z=0   SpecialJt=No
   Joint=20   CoordSys=GLOBAL   CoordType=Cartesian   XorR=0.235   Y=1.72   Z=0   SpecialJt=No
   Joint=21   CoordSys=GLOBAL   CoordType=Cartesian   XorR=0   Y=1.72   Z=0   SpecialJt=No
   Joint=22   CoordSys=GLOBAL   CoordType=Cartesian   XorR=0.235   Y=1.935   Z=0   SpecialJt=No
   Joint=23   CoordSys=GLOBAL   CoordType=Cartesian   XorR=0   Y=1.935   Z=0   SpecialJt=No
   Joint=24   CoordSys=GLOBAL   CoordType=Cartesian   XorR=0.235   Y=2.15   Z=0   SpecialJt=No
# ... 72 like lines cut
   Joint=97   CoordSys=GLOBAL   CoordType=Cartesian   XorR=0   Y=0   Z=0   SpecialJt=Yes
   Joint=98   CoordSys=GLOBAL   CoordType=Cartesian   XorR=2.35   Y=0   Z=0   SpecialJt=Yes
   Joint=99   CoordSys=GLOBAL   CoordType=Cartesian   XorR=1.88   Y=1.29   Z=0   SpecialJt=No
   Joint=100   CoordSys=GLOBAL   CoordType=Cartesian   XorR=1.88   Y=1.505   Z=0   SpecialJt=No
   Joint=101   CoordSys=GLOBAL   CoordType=Cartesian   XorR=1.88   Y=1.72   Z=0   SpecialJt=No
   Joint=102   CoordSys=GLOBAL   CoordType=Cartesian   XorR=1.88   Y=1.935   Z=0   SpecialJt=No
   Joint=103   CoordSys=GLOBAL   CoordType=Cartesian   XorR=1.88   Y=2.15   Z=0   SpecialJt=No
   Joint=104   CoordSys=GLOBAL   CoordType=Cartesian   XorR=2.115   Y=0   Z=0   SpecialJt=No
   Joint=105   CoordSys=GLOBAL   CoordType=Cartesian   XorR=0   Y=2.15   Z=0   SpecialJt=Yes
   Joint=106   CoordSys=GLOBAL   CoordType=Cartesian   XorR=2.35   Y=2.15   Z=0   SpecialJt=Yes
   Joint=107   CoordSys=GLOBAL   CoordType=Cartesian   XorR=2.115   Y=0.215   Z=0   SpecialJt=No
   Joint=108   CoordSys=GLOBAL   CoordType=Cartesian   XorR=0.1   Y=0   Z=0   SpecialJt=No
   Joint=109   CoordSys=GLOBAL   CoordType=Cartesian   XorR=0.1   Y=2.15   Z=0   SpecialJt=No
   Joint=110   CoordSys=GLOBAL   CoordType=Cartesian   XorR=0.1   Y=2.15   Z=1.3   SpecialJt=No
   Joint=111   CoordSys=GLOBAL   CoordType=Cartesian   XorR=0.1   Y=0   Z=1.3   SpecialJt=No
   Joint=112   CoordSys=GLOBAL   CoordType=Cartesian   XorR=0   Y=0.1   Z=0   SpecialJt=No
   Joint=113   CoordSys=GLOBAL   CoordType=Cartesian   XorR=2.35   Y=0.1   Z=0   SpecialJt=No
   Joint=114   CoordSys=GLOBAL   CoordType=Cartesian   XorR=2.35   Y=0.1   Z=1.3   SpecialJt=No
   Joint=115   CoordSys=GLOBAL   CoordType=Cartesian   XorR=0   Y=0.1   Z=1.3   SpecialJt=No
   Joint=116   CoordSys=GLOBAL   CoordType=Cartesian   XorR=2.25   Y=0   Z=0   SpecialJt=No
   Joint=117   CoordSys=GLOBAL   CoordType=Cartesian   XorR=2.25   Y=2.15   Z=0   SpecialJt=No
   Joint=118   CoordSys=GLOBAL   CoordType=Cartesian   XorR=2.25   Y=2.15   Z=1.3   SpecialJt=No
   Joint=119   CoordSys=GLOBAL   CoordType=Cartesian   XorR=2.25   Y=0   Z=1.3   SpecialJt=No
   Joint=120   CoordSys=GLOBAL   CoordType=Cartesian   XorR=0   Y=2.05   Z=0   SpecialJt=No
   Joint=121   CoordSys=GLOBAL   CoordType=Cartesian   XorR=2.35   Y=2.05   Z=0   SpecialJt=No
   Joint=122   CoordSys=GLOBAL   CoordType=Cartesian   XorR=2.35   Y=2.05   Z=1.3   SpecialJt=No
   Joint=123   CoordSys=GLOBAL   CoordType=Cartesian   XorR=0   Y=2.05   Z=1.3   SpecialJt=No
   Joint=124   CoordSys=GLOBAL   CoordType=Cartesian   XorR=2.115   Y=0.43   Z=0   SpecialJt=No
   Joint=125   CoordSys=GLOBAL   CoordType=Cartesian   XorR=9.14976897346714E-02   Y=0.1   Z=1.3   SpecialJt=Yes
   Joint=126   CoordSys=GLOBAL   CoordType=Cartesian   XorR=2.115   Y=0.645   Z=0   SpecialJt=No
   Joint=127   CoordSys=GLOBAL   CoordType=Cartesian   XorR=2.22271390109371   Y=2.05   Z=1.3   SpecialJt=Yes
   Joint=128   CoordSys=GLOBAL   CoordType=Cartesian   XorR=0.140519221772296   Y=2.05   Z=1.3   SpecialJt=Yes
   Joint=129   CoordSys=GLOBAL   CoordType=Cartesian   XorR=2.115   Y=0.86   Z=0   SpecialJt=No
   Joint=130   CoordSys=GLOBAL   CoordType=Cartesian   XorR=2.115   Y=1.075   Z=0   SpecialJt=No
   Joint=131   CoordSys=GLOBAL   CoordType=Cartesian   XorR=2.115   Y=1.29   Z=0   SpecialJt=No
   Joint=132   CoordSys=GLOBAL   CoordType=Cartesian   XorR=2.115   Y=1.505   Z=0   SpecialJt=No
   Joint=133   CoordSys=GLOBAL   CoordType=Cartesian   XorR=2.115   Y=1.72   Z=0   SpecialJt=No
   Joint=134   CoordSys=GLOBAL   CoordType=Cartesian   XorR=2.115   Y=1.935   Z=0   SpecialJt=No
   Joint=135   CoordSys=GLOBAL   CoordType=Cartesian   XorR=2.115   Y=2.15   Z=0   SpecialJt=No
   Joint=136   CoordSys=GLOBAL   CoordType=Cartesian   XorR=2.35   Y=0.215   Z=0   SpecialJt=No
   Joint=137   CoordSys=GLOBAL   CoordType=Cartesian   XorR=2.35   Y=0.43   Z=0   SpecialJt=No
   Joint=138   CoordSys=GLOBAL   CoordType=Cartesian   XorR=2.35   Y=0.645   Z=0   SpecialJt=No
   Joint=139   CoordSys=GLOBAL   CoordType=Cartesian   XorR=2.35   Y=0.86   Z=0   SpecialJt=No
   Joint=140   CoordSys=GLOBAL   CoordType=Cartesian   XorR=2.35   Y=1.075   Z=0   SpecialJt=No
   Joint=141   CoordSys=GLOBAL   CoordType=Cartesian   XorR=2.35   Y=1.29   Z=0   SpecialJt=No
   Joint=142   CoordSys=GLOBAL   CoordType=Cartesian   XorR=2.35   Y=1.505   Z=0   SpecialJt=No
   Joint=143   CoordSys=GLOBAL   CoordType=Cartesian   XorR=2.35   Y=1.72   Z=0   SpecialJt=No
   Joint=144   CoordSys=GLOBAL   CoordType=Cartesian   XorR=2.35   Y=1.935   Z=0   SpecialJt=No
   Joint=145   CoordSys=GLOBAL   CoordType=Cartesian   XorR=0.235   Y=0.1   Z=0   SpecialJt=No
   Joint=146   CoordSys=GLOBAL   CoordType=Cartesian   XorR=0.235   Y=0.1   Z=0.13   SpecialJt=No
   Joint=147   CoordSys=GLOBAL   CoordType=Cartesian   XorR=0   Y=0.1   Z=0.13   SpecialJt=No
   Joint=148   CoordSys=GLOBAL   CoordType=Cartesian   XorR=0.235   Y=0.1   Z=0.26   SpecialJt=No
# ... 784 like lines cut
 
TABLE:  "JOINT LOADS - FORCE"
   Joint=125   LoadPat="Sforzo assiale"   CoordSys=GLOBAL   F1=0   F2=0   F3=-28.5   M1=0   M2=0   M3=0
   Joint=127   LoadPat="Sforzo assiale"   CoordSys=GLOBAL   F1=0   F2=0   F3=-163.5   M1=0   M2=0   M3=0
   Joint=128   LoadPat="Sforzo assiale"   CoordSys=GLOBAL   F1=0   F2=0   F3=-140.8   M1=0   M2=0   M3=0
   Joint=4   LoadPat=DEAD   CoordSys=GLOBAL   F1=0   F2=0   F3=304   M1=0   M2=0   M3=0
 
TABLE:  "JOINT PATTERN DEFINITIONS"
   Pattern=Default
 
TABLE:  "JOINT RESTRAINT ASSIGNMENTS"
   Joint=5   U1=Yes   U2=Yes   U3=Yes   R1=No   R2=No   R3=No
   Joint=24   U1=Yes   U2=Yes   U3=Yes   R1=No   R2=No   R3=No
   Joint=25   U1=Yes   U2=Yes   U3=Yes   R1=No   R2=No   R3=No
   Joint=35   U1=Yes   U2=Yes   U3=Yes   R1=No   R2=No   R3=No
   Joint=36   U1=Yes   U2=Yes   U3=Yes   R1=No   R2=No   R3=No
   Joint=46   U1=Yes   U2=Yes   U3=Yes   R1=No   R2=No   R3=No
   Joint=47   U1=Yes   U2=Yes   U3=Yes   R1=No   R2=No   R3=No
   Joint=57   U1=Yes   U2=Yes   U3=Yes   R1=No   R2=No   R3=No
   Joint=58   U1=Yes   U2=Yes   U3=Yes   R1=No   R2=No   R3=No
   Joint=68   U1=Yes   U2=Yes   U3=Yes   R1=No   R2=No   R3=No
   Joint=69   U1=Yes   U2=Yes   U3=Yes   R1=No   R2=No   R3=No
   Joint=79   U1=Yes   U2=Yes   U3=Yes   R1=No   R2=No   R3=No
   Joint=80   U1=Yes   U2=Yes   U3=Yes   R1=No   R2=No   R3=No
   Joint=90   U1=Yes   U2=Yes   U3=Yes   R1=No   R2=No   R3=No
   Joint=91   U1=Yes   U2=Yes   U3=Yes   R1=No   R2=No   R3=No
   Joint=97   U1=Yes   U2=Yes   U3=Yes   R1=No   R2=No   R3=No
   Joint=98   U1=Yes   U2=Yes   U3=Yes   R1=No   R2=No   R3=No
   Joint=103   U1=Yes   U2=Yes   U3=Yes   R1=No   R2=No   R3=No
   Joint=104   U1=Yes   U2=Yes   U3=Yes   R1=No   R2=No   R3=No
   Joint=105   U1=Yes   U2=Yes   U3=Yes   R1=No   R2=No   R3=No
# ... 6 like lines cut
 
TABLE:  "LOAD CASE DEFINITIONS"
   Case=DEAD   Type=LinStatic   InitialCond=Zero   DesTypeOpt="Prog Det"   DesignType=DEAD   AutoType=None   RunCase=Yes
   Case=MODAL   Type=LinModal   InitialCond=Zero   DesTypeOpt="Prog Det"   DesignType=OTHER   AutoType=None   RunCase=Yes
   Case="Carico centralina"   Type=LinStatic   InitialCond=Zero   DesTypeOpt="Prog Det"   DesignType=DEAD   AutoType=None   RunCase=Yes
   Case="Sforzo assiale"   Type=LinStatic   InitialCond=Zero   DesTypeOpt="Prog Det"   DesignType=DEAD   AutoType=None   RunCase=Yes
   Case=Afflusso   Type=LinStatic   InitialCond=Zero   DesTypeOpt="Prog Det"   DesignType=DEAD   AutoType=None   RunCase=Yes
   Case="Carico dinamico"   Type=LinStatic   InitialCond=Zero   DesTypeOpt="Prog Det"   DesignType=DEAD   AutoType=None   RunCase=Yes
   Case="Sforzo assiale1"   Type=LinStatic   InitialCond=Zero   DesTypeOpt="Prog Det"   DesignType=DEAD   AutoType=None   RunCase=Yes
   Case="Momento flettente"   Type=LinStatic   InitialCond=Zero   DesTypeOpt="Prog Det"   DesignType=DEAD   AutoType=None   RunCase=Yes
   Case=Taglio   Type=LinStatic   InitialCond=Zero   DesTypeOpt="Prog Det"   DesignType=DEAD   AutoType=None   RunCase=Yes
 
TABLE:  "LOAD PATTERN DEFINITIONS"
   LoadPat=DEAD   DesignType=DEAD   SelfWtMult=1
   LoadPat="Sforzo assiale"   DesignType=DEAD   SelfWtMult=0
   LoadPat=Centralina   DesignType=DEAD   SelfWtMult=0
   LoadPat=Afflusso   DesignType=DEAD   SelfWtMult=0
   LoadPat="Carico dinamico"   DesignType=DEAD   SelfWtMult=0
   LoadPat="Sforzo assiale"   DesignType=DEAD   SelfWtMult=0
   LoadPat="Momento flettente"   DesignType=DEAD   SelfWtMult=0
   LoadPat=Taglio   DesignType=DEAD   SelfWtMult=0
 
TABLE:  "MASSES 1 - MASS SOURCE"
   MassFrom=Elements
 
TABLE:  "MATERIAL PROPERTIES 01 - GENERAL"
   Material=4000Psi   Type=Concrete   SymType=Isotropic   TempDepend=No   Color=Cyan   Notes="Normalweight f'c = 4 ksi added 13/03/2015 20:51:39"
   Material=A992Fy50   Type=Steel   SymType=Isotropic   TempDepend=No   Color=Green   Notes="ASTM A992 Fy=50 ksi added 13/03/2015 20:51:39"
   Material=CLS   Type=Concrete   SymType=Isotropic   TempDepend=No   Color=Blue   Notes="ASTM A36 added 13/03/2015 20:56:31"
 
TABLE:  "MATERIAL PROPERTIES 02 - BASIC MECHANICAL PROPERTIES"
   Material=4000Psi   UnitWeight=23.563121614979   UnitMass=2.40276960611018   E1=24855578.2847654   G12=10356490.9519856   U12=0.2   A1=0.0000099
   Material=A992Fy50   UnitWeight=76.9728639422648   UnitMass=7.84904737995992   E1=199947978.795958   G12=76903068.767676   U12=0.3   A1=0.0000117
   Material=CLS   UnitWeight=25   UnitMass=2.54929048055605   E1=199947978.795958   G12=83311657.831649   U12=0.2   A1=0.0000117
 
TABLE:  "MATERIAL PROPERTIES 03A - STEEL DATA"
   Material=A992Fy50   Fy=344737.894475789   Fu=448159.262818526   EffFy=379211.683923368   EffFu=492975.189100378   SSCurveOpt=Simple   SSHysType=Kinematic   SHard=0.015   SMax=0.11   SRup=0.17   FinalSlope=-0.1
 
TABLE:  "MATERIAL PROPERTIES 03B - CONCRETE DATA"
   Material=4000Psi   Fc=27579.0315580631   LtWtConc=No   SSCurveOpt=Mander   SSHysType=Takeda   SFc=2.21914221766202E-03   SCap=0.005   FinalSlope=-0.1   FAngle=0   DAngle=0
   Material=CLS   Fc=20684.2736685473   LtWtConc=No   SSCurveOpt=Mander   SSHysType=Takeda   SFc=0.002   SCap=0.005   FinalSlope=-0.1   FAngle=0   DAngle=0
 
TABLE:  "MATERIAL PROPERTIES 06 - DAMPING PARAMETERS"
   Material=4000Psi   ModalRatio=0   VisMass=0   VisStiff=0   HysMass=0   HysStiff=0
   Material=A992Fy50   ModalRatio=0   VisMass=0   VisStiff=0   HysMass=0   HysStiff=0
   Material=CLS   ModalRatio=0   VisMass=0   VisStiff=0   HysMass=0   HysStiff=0
 
TABLE:  "OPTIONS - COLORS - DISPLAY"
   DeviceType=Screen   Points=Yellow   LinesFrame=Yellow   LinesFrmExt=Yellow   LinesCable=Green   LinesTendon=Green   SpringLinks=Green   Restraints=Green   Releases=Green   Axes=Cyan   Text=Green   ShadowLines=Gray8Dark _
        GuideLines=Gray8Dark   Highlight=Red   Selection=White   AreaFillBot=Red   AreaFillTop=16744703   AreaFillSd=Red   AreaEdge=DarkRed   SolidF1=Red   SolidF2=Blue   SolidF3=Green   SolidF4=Yellow   SolidF5=White   SolidF6=Cyan _
        SolidEdge=DarkRed   Floor=Gray4   Background=Black   BGLowLeft=Black   BGLowRight=Black   BGUpRight=Black   Darkness=0.5
   DeviceType=Printer   Points=Gray8Dark   LinesFrame=Black   LinesFrmExt=Gray4   LinesCable=Black   LinesTendon=Black   SpringLinks=Gray8Dark   Restraints=Gray8Dark   Releases=Gray4   Axes=Black   Text=Black   ShadowLines=Gray4 _
        GuideLines=Gray4   Highlight=Black   Selection=Black   AreaFillBot=Gray4   AreaFillTop=Gray8Dark   AreaFillSd=Gray4   AreaEdge=Black   SolidF1=Gray1Light   SolidF2=Gray2   SolidF3=Gray3   SolidF4=Gray4   SolidF5=Gray5 _
        SolidF6=Gray6   SolidEdge=Black   Floor=Gray4   Background=White   BGLowLeft=White   BGLowRight=White   BGUpRight=White   Darkness=0.5
   DeviceType="Color Printer"   Points=Black   LinesFrame=7303023   LinesFrmExt=White   LinesCable=Green   LinesTendon=Green   SpringLinks=Green   Restraints=9408399   Releases=Green   Axes=Cyan   Text=Black   ShadowLines=Gray8Dark _
        GuideLines=10461087   Highlight=Red   Selection=10504778   AreaFillBot=16634568   AreaFillTop=14277119   AreaFillSd=16634568   AreaEdge=7303023   SolidF1=10122991   SolidF2=16756912   SolidF3=11599795   SolidF4=12713983 _
        SolidF5=White   SolidF6=16777128   SolidEdge=7303023   Floor=13619151   Background=White   BGLowLeft=White   BGLowRight=14671839   BGUpRight=White   Darkness=0.5
 
TABLE:  "OPTIONS - COLORS - OUTPUT"
   DeviceType=Screen   Contour1=13107400   Contour2=6553828   Contour3=Red   Contour4=16639   Contour5=Orange   Contour6=43775   Contour7=54527   Contour8=Yellow   Contour9=65408   Contour10=Green   Contour11=8453888   Contour12=Cyan _
        Contour13=16755200   Contour14=16733440   Contour15=Blue   Transpare=0.5   Ratio1=Cyan   Ratio2=Green   Ratio3=Yellow   Ratio4=Orange   Ratio5=Red   RatioNotD=Gray4   RatioNotC=Red   RatioVal1=0.5   RatioVal2=0.7   RatioVal3=0.9 _
        RatioVal4=1   DFillPos=Yellow   DFillNeg=Red   DFillRPos=Blue   DFillRNeg=Cyan
   DeviceType=Printer   Contour1=Black   Contour2=3158064   Contour3=4210752   Contour4=5263440   Contour5=6316128   Contour6=7368816   Contour7=Gray8Dark   Contour8=Gray7   Contour9=Gray6   Contour10=Gray5   Contour11=Gray4 _
        Contour12=Gray3   Contour13=Gray2   Contour14=Gray1Light   Contour15=White   Transpare=0   Ratio1=Gray2   Ratio2=Gray4   Ratio3=Gray8Dark   Ratio4=4210752   Ratio5=Black   RatioNotD=Gray4   RatioNotC=Black   RatioVal1=0.5 _
        RatioVal2=0.7   RatioVal3=0.9   RatioVal4=1   DFillPos=Gray8Dark   DFillNeg=Gray8Dark   DFillRPos=4210752   DFillRNeg=4210752
   DeviceType="Color Printer"   Contour1=13107400   Contour2=6553828   Contour3=Red   Contour4=16639   Contour5=Orange   Contour6=43775   Contour7=54527   Contour8=Yellow   Contour9=65408   Contour10=Green   Contour11=8453888 _
        Contour12=Cyan   Contour13=16755200   Contour14=16733440   Contour15=Blue   Transpare=0.5   Ratio1=Cyan   Ratio2=Green   Ratio3=Yellow   Ratio4=Orange   Ratio5=Red   RatioNotD=Gray4   RatioNotC=Red   RatioVal1=0.5   RatioVal2=0.7 _
        RatioVal3=0.9   RatioVal4=1   DFillPos=Red   DFillNeg=Red   DFillRPos=Blue   DFillRNeg=Blue
 
TABLE:  "PREFERENCES - ALUMINUM DESIGN - AA-ASD 2000"
   THDesign=Envelopes   FrameType="Moment Frame"   SRatioLimit=1   MaxIter=1   LatFact=1.33333333333333   UseLatFact=No   Bridge=No
 
TABLE:  "PREFERENCES - COLD FORMED DESIGN - AISI-ASD96"
   THDesign=Envelopes   FrameType="Braced Frame"   SRatioLimit=1   MaxIter=1   OmegaBS=1.67   OmegaBUS=1.67   OmegaBLTB=1.67   OmegaVS=1.67   OmegaVNS=1.5   OmegaT=1.67   OmegaC=1.8
 
TABLE:  "PREFERENCES - CONCRETE DESIGN - ACI 318-05/IBC2003"
   THDesign=Envelopes   NumCurves=24   NumPoints=11   MinEccen=No   PatLLF=0.75   UFLimit=0.95   SeisCat=D   PhiT=0.9   PhiCTied=0.65   PhiCSpiral=0.7   PhiV=0.75   PhiVSeismic=0.6   PhiVJoint=0.85
 
TABLE:  "PREFERENCES - DIMENSIONAL"
   MergeTol=0.001   FineGrid=0.25   Nudge=0.25   SelectTol=3   SnapTol=12   SLineThick=1   PLineThick=4   MaxFont=8   MinFont=3   AutoZoom=10   ShrinkFact=70   TextFileLen=240
 
TABLE:  "PREFERENCES - STEEL DESIGN - AISC-LRFD93"
   THDesign=Envelopes   FrameType="Moment Frame"   PatLLF=0.75   SRatioLimit=0.95   MaxIter=1   PhiB=0.9   PhiC=0.85   PhiT=0.9   PhiV=0.9   PhiCA=0.9   CheckDefl=Yes   DLRat=120   SDLAndLLRat=120   LLRat=360   TotalRat=240   NetRat=240
 
TABLE:  "PROGRAM CONTROL"
   ProgramName=SAP2000   Version=14.0.0   CurrUnits="KN, m, C"   SteelCode=AISC-LRFD93   ConcCode="ACI 318-05/IBC2003"   AlumCode="AA-ASD 2000"   ColdCode=AISI-ASD96   BridgeCode="AASHTO LRFD 2007"   RegenHinge=Yes
 
TABLE:  "PROJECT INFORMATION"
   Item="Company Name"
   Item="Client Name"
   Item="Project Name"
   Item="Project Number"
   Item="Model Name"
   Item="Model Description"
   Item="Revision Number"
   Item="Frame Type"
   Item=Engineer
   Item=Checker
   Item=Supervisor
   Item="Issue Code"
   Item="Design Code"
 
TABLE:  "REBAR SIZES"
   RebarID=#2   Area=0.000032258   Diameter=0.00635
   RebarID=#3   Area=7.09675996154547E-05   Diameter=0.009525
   RebarID=#4   Area=1.29032001922727E-04   Diameter=0.0127
   RebarID=#5   Area=1.99999601538181E-04   Diameter=0.015875
   RebarID=#6   Area=2.83870398461819E-04   Diameter=0.01905
   RebarID=#7   Area=3.87096015381813E-04   Diameter=0.022225
   RebarID=#8   Area=5.09676413843632E-04   Diameter=0.0254
   RebarID=#9   Area=0.00064516   Diameter=2.86512005329132E-02
   RebarID=#10   Area=8.1935318769455E-04   Diameter=3.22579995155334E-02
   RebarID=#11   Area=1.00644956308365E-03   Diameter=3.58139991521835E-02
   RebarID=#14   Area=0.00145161   Diameter=4.30021989583969E-02
   RebarID=#18   Area=0.00258064   Diameter=5.73277992248535E-02
   RebarID=10M   Area=1.00000004162606E-04   Diameter=1.13000003604438E-02
   RebarID=15M   Area=2.00000008325212E-04   Diameter=1.60000002402959E-02
   RebarID=20M   Area=3.00000012487818E-04   Diameter=1.95000002928606E-02
   RebarID=25M   Area=5.00000020813031E-04   Diameter=2.52000011414055E-02
   RebarID=30M   Area=7.00000029138243E-04   Diameter=2.99000000675832E-02
   RebarID=35M   Area=1.00000004162606E-03   Diameter=3.57000012990997E-02
   RebarID=45M   Area=1.50000006243909E-03   Diameter=4.37000014192476E-02
   RebarID=55M   Area=2.50000010406515E-03   Diameter=0.056400002372922
   RebarID=6d   Area=2.83000004150781E-05   Diameter=6.00000009011096E-03
   RebarID=8d   Area=5.03000013308514E-05   Diameter=8.00000012014795E-03
   RebarID=10d   Area=7.85000032676458E-05   Diameter=1.00000001501849E-02
   RebarID=12d   Area=1.13000004703745E-04   Diameter=1.20000001802219E-02
   RebarID=14d   Area=1.54000006410413E-04   Diameter=1.40000002102589E-02
   RebarID=16d   Area=2.01000008366838E-04   Diameter=1.60000002402959E-02
   RebarID=20d   Area=3.14000013070583E-04   Diameter=2.00000003003699E-02
   RebarID=25d   Area=4.91000020438396E-04   Diameter=2.50000003754623E-02
   RebarID=26d   Area=5.31000022103439E-04   Diameter=2.60000003904808E-02
   RebarID=28d   Area=6.16000025641654E-04   Diameter=2.80000004205178E-02
   RebarID=N12   Area=1.13000004703745E-04   Diameter=1.20000001802219E-02
   RebarID=N16   Area=2.01000008366838E-04   Diameter=1.60000002402959E-02
   RebarID=N20   Area=3.14000013070583E-04   Diameter=2.00000003003699E-02
   RebarID=N24   Area=4.5200001881498E-04   Diameter=2.40000003604438E-02
   RebarID=N28   Area=6.16000025641654E-04   Diameter=2.80000004205178E-02
   RebarID=N32   Area=8.04000033467353E-04   Diameter=3.20000004805918E-02
   RebarID=N36   Area=1.02000004245858E-03   Diameter=3.60000005406658E-02
 
END TABLE DATA
